@<TRIPOS>MOLECULE
*****
 24 26 0 0 0
SMALL
GASTEIGER

@<TRIPOS>ATOM
      1 C          -8.8896  -16.8050   23.5432 C.ar    1  UNL1        0.0009
      2 C          -8.4570  -15.6078   24.3366 C.ar    1  UNL1       -0.0003
      3 C          -6.9970  -15.3181   24.5212 C.ar    1  UNL1       -0.0045
      4 C          -5.9694  -16.2255   23.9124 C.ar    1  UNL1       -0.0247
      5 C          -6.4019  -17.4227   23.1190 C.ar    1  UNL1       -0.0247
      6 C          -7.8620  -17.7125   22.9343 C.ar    1  UNL1       -0.0045
      7 C          -5.1696  -18.1318   22.6409 C.3     1  UNL1        0.0437
      8 C          -3.9754  -17.3728   23.1388 C.3     1  UNL1        0.0838
      9 C          -4.4697  -16.1947   23.9247 C.3     1  UNL1        0.0437
     10 C         -10.2039  -18.9708   25.1501 C.3     1  UNL1        0.0311
     11 C         -11.0069  -18.1777   24.1620 C.ar    1  UNL1       -0.0188
     12 C         -12.4669  -18.4675   23.9773 C.ar    1  UNL1        0.0164
     13 C         -13.2700  -17.6745   22.9892 C.ar    1  UNL1        0.0986
     14 N         -12.6128  -16.5916   22.1858 N.ar    1  UNL1       -0.2423
     15 C         -11.1527  -16.3018   22.3704 C.ar    1  UNL1        0.0985
     16 C         -10.3497  -17.0948   23.3585 C.ar    1  UNL1        0.0152
     17 N          -2.5391  -17.7295   22.8939 N.3     1  UNL1       -0.1841
     18 H          -2.3656  -18.6065   23.3849 H       1  UNL1        0.1484
     19 S          -2.0406  -17.9126   21.4911 S.O2    1  UNL1        0.0390
     20 O          -1.7113  -19.3441   21.7950 O.2     1  UNL1       -0.1576
     21 O          -2.3698  -16.4811   21.1872 O.2     1  UNL1       -0.1576
     22 C          -1.5420  -18.0958   20.0883 C.3     1  UNL1        0.1457
     23 C          -0.0938  -17.8669   19.7711 C.3     1  UNL1        0.0270
     24 C          -2.4915  -18.5078   19.0027 C.3     1  UNL1        0.0270
@<TRIPOS>BOND
     1    10    11    1
     2    11    12   ar
     3    12    13   ar
     4    13    14   ar
     5    14    15   ar
     6    15    16   ar
     7    16     1    1
     8     1     2   ar
     9     2     3   ar
    10     3     4   ar
    11     4     5   ar
    12     5     6   ar
    13     5     7    1
    14     7     8    1
    15     8    17    1
    16    17    19    1
    17    19    20    2
    18    19    21    2
    19    19    22    1
    20    22    23    1
    21    22    24    1
    22     8     9    1
    23    16    11   ar
    24     6     1   ar
    25     9     4    1
    26    17    18    1
@<TRIPOS>MOLECULE
*****
 24 26 0 0 0
SMALL
GASTEIGER

@<TRIPOS>ATOM
      1 C          -9.2525  -18.5849   21.3065 C.ar    1  UNL1        0.0009
      2 C          -9.3337  -19.3655   20.0283 C.ar    1  UNL1       -0.0003
      3 C          -8.0911  -19.9534   19.4282 C.ar    1  UNL1       -0.0045
      4 C          -6.7671  -19.7606   20.1065 C.ar    1  UNL1       -0.0247
      5 C          -6.6859  -18.9800   21.3848 C.ar    1  UNL1       -0.0247
      6 C          -7.9286  -18.3922   21.9848 C.ar    1  UNL1       -0.0045
      7 C          -5.2514  -18.9558   21.8227 C.3     1  UNL1        0.0437
      8 C          -4.4461  -19.7214   20.8150 C.3     1  UNL1        0.0838
      9 C          -5.3828  -20.2189   19.7544 C.3     1  UNL1        0.0437
     10 C         -10.7579  -20.0944   23.4172 C.3     1  UNL1        0.0311
     11 C         -11.2480  -18.7517   22.9620 C.ar    1  UNL1       -0.0188
     12 C         -12.4906  -18.1639   23.5621 C.ar    1  UNL1        0.0164
     13 C         -12.9807  -16.8212   23.1068 C.ar    1  UNL1        0.0986
     14 N         -12.2279  -16.0665   22.0515 N.ar    1  UNL1       -0.2423
     15 C         -10.9852  -16.6544   21.4514 C.ar    1  UNL1        0.0985
     16 C         -10.4952  -17.9970   21.9066 C.ar    1  UNL1        0.0152
     17 N          -2.9642  -19.9496   20.8602 N.3     1  UNL1       -0.1841
     18 H          -2.7450  -20.6097   20.1142 H       1  UNL1        0.1484
     19 S          -2.0222  -18.7926   20.7053 S.O2    1  UNL1        0.0390
     20 O          -1.6354  -18.9141   22.1494 O.2     1  UNL1       -0.1576
     21 O          -2.4090  -18.6711   19.2611 O.2     1  UNL1       -0.1576
     22 C          -1.0802  -17.6356   20.5503 C.3     1  UNL1        0.1457
     23 C          -1.3865  -16.3251   21.2129 C.3     1  UNL1        0.0270
     24 C           0.1680  -17.7890   19.7329 C.3     1  UNL1        0.0270
@<TRIPOS>BOND
     1    10    11    1
     2    11    12   ar
     3    12    13   ar
     4    13    14   ar
     5    14    15   ar
     6    15    16   ar
     7    16     1    1
     8     1     2   ar
     9     2     3   ar
    10     3     4   ar
    11     4     5   ar
    12     5     6   ar
    13     5     7    1
    14     7     8    1
    15     8    17    1
    16    17    19    1
    17    19    20    2
    18    19    21    2
    19    19    22    1
    20    22    23    1
    21    22    24    1
    22     8     9    1
    23    16    11   ar
    24     6     1   ar
    25     9     4    1
    26    17    18    1
@<TRIPOS>MOLECULE
*****
 24 26 0 0 0
SMALL
GASTEIGER

@<TRIPOS>ATOM
      1 C          -9.3183  -18.7445   21.8151 C.ar    1  UNL1        0.0009
      2 C          -9.1370  -19.4051   20.4806 C.ar    1  UNL1       -0.0003
      3 C          -7.7573  -19.6944   19.9683 C.ar    1  UNL1       -0.0045
      4 C          -6.5588  -19.3232   20.7905 C.ar    1  UNL1       -0.0247
      5 C          -6.7401  -18.6627   22.1250 C.ar    1  UNL1       -0.0247
      6 C          -8.1199  -18.3734   22.6372 C.ar    1  UNL1       -0.0045
      7 C          -5.3805  -18.4137   22.7074 C.3     1  UNL1        0.0437
      8 C          -4.3588  -18.9203   21.7329 C.3     1  UNL1        0.0838
      9 C          -5.0870  -19.4824   20.5482 C.3     1  UNL1        0.0437
     10 C         -11.3273  -17.4013   20.0376 C.3     1  UNL1        0.0311
     11 C         -11.7027  -17.7835   21.4387 C.ar    1  UNL1       -0.0188
     12 C         -13.0824  -17.4942   21.9510 C.ar    1  UNL1        0.0164
     13 C         -13.4577  -17.8764   23.3521 C.ar    1  UNL1        0.0986
     14 N         -12.4532  -18.5480   24.2409 N.ar    1  UNL1       -0.2423
     15 C         -11.0734  -18.8374   23.7285 C.ar    1  UNL1        0.0985
     16 C         -10.6982  -18.4552   22.3275 C.ar    1  UNL1        0.0152
     17 N          -2.8702  -18.8730   21.9119 N.3     1  UNL1       -0.1841
     18 H          -2.5664  -19.8274   22.1052 H       1  UNL1        0.1484
     19 S          -1.9980  -18.3565   20.8062 S.O2    1  UNL1        0.0390
     20 O          -2.6307  -17.0030   20.9394 O.2     1  UNL1       -0.1576
     21 O          -1.3652  -19.7100   20.6731 O.2     1  UNL1       -0.1576
     22 C          -1.1257  -17.8400   19.7006 C.3     1  UNL1        0.1457
     23 C           0.3053  -17.4857   19.9776 C.3     1  UNL1        0.0270
     24 C          -1.6845  -17.6776   18.3181 C.3     1  UNL1        0.0270
@<TRIPOS>BOND
     1    10    11    1
     2    11    12   ar
     3    12    13   ar
     4    13    14   ar
     5    14    15   ar
     6    15    16   ar
     7    16     1    1
     8     1     2   ar
     9     2     3   ar
    10     3     4   ar
    11     4     5   ar
    12     5     6   ar
    13     5     7    1
    14     7     8    1
    15     8    17    1
    16    17    19    1
    17    19    20    2
    18    19    21    2
    19    19    22    1
    20    22    23    1
    21    22    24    1
    22     8     9    1
    23    16    11   ar
    24     6     1   ar
    25     9     4    1
    26    17    18    1
@<TRIPOS>MOLECULE
*****
 24 26 0 0 0
SMALL
GASTEIGER

@<TRIPOS>ATOM
      1 C          -4.5588  -18.9270   21.0496 C.ar    1  UNL1        0.0009
      2 C          -5.1826  -20.2585   20.7531 C.ar    1  UNL1       -0.0003
      3 C          -6.5389  -20.5900   21.3014 C.ar    1  UNL1       -0.0045
      4 C          -7.2712  -19.5901   22.1462 C.ar    1  UNL1       -0.0247
      5 C          -6.6474  -18.2586   22.4428 C.ar    1  UNL1       -0.0247
      6 C          -5.2912  -17.9271   21.8945 C.ar    1  UNL1       -0.0045
      7 C          -7.6015  -17.4802   23.2994 C.3     1  UNL1        0.0437
      8 C          -8.8150  -18.3306   23.5323 C.3     1  UNL1        0.0838
      9 C          -8.6109  -19.6346   22.8196 C.3     1  UNL1        0.0437
     10 C          -2.3495  -18.1077   22.9064 C.3     1  UNL1        0.0311
     11 C          -2.0979  -18.1857   21.4297 C.ar    1  UNL1       -0.0188
     12 C          -0.7416  -17.8542   20.8815 C.ar    1  UNL1        0.0164
     13 C          -0.4900  -17.9322   19.4047 C.ar    1  UNL1        0.0986
     14 N          -1.5946  -18.3419   18.4763 N.ar    1  UNL1       -0.2423
     15 C          -2.9509  -18.6735   19.0246 C.ar    1  UNL1        0.0985
     16 C          -3.2025  -18.5954   20.5013 C.ar    1  UNL1        0.0152
     17 N         -10.0209  -17.9447   24.3367 N.3     1  UNL1       -0.1841
     18 H          -9.8488  -17.0045   24.6927 H       1  UNL1        0.1484
     19 S         -11.3759  -17.9229   23.6935 S.O2    1  UNL1        0.0390
     20 O         -10.9159  -16.8416   22.7612 O.2     1  UNL1       -0.1576
     21 O         -11.8358  -19.0042   24.6258 O.2     1  UNL1       -0.1576
     22 C         -12.7308  -17.9011   23.0504 C.3     1  UNL1        0.1457
     23 C         -12.8525  -17.7524   21.5627 C.3     1  UNL1        0.0270
     24 C         -13.9640  -18.0281   23.8948 C.3     1  UNL1        0.0270
@<TRIPOS>BOND
     1    10    11    1
     2    11    12   ar
     3    12    13   ar
     4    13    14   ar
     5    14    15   ar
     6    15    16   ar
     7    16     1    1
     8     1     2   ar
     9     2     3   ar
    10     3     4   ar
    11     4     5   ar
    12     5     6   ar
    13     5     7    1
    14     7     8    1
    15     8    17    1
    16    17    19    1
    17    19    20    2
    18    19    21    2
    19    19    22    1
    20    22    23    1
    21    22    24    1
    22     8     9    1
    23    16    11   ar
    24     6     1   ar
    25     9     4    1
    26    17    18    1
@<TRIPOS>MOLECULE
*****
 24 26 0 0 0
SMALL
GASTEIGER

@<TRIPOS>ATOM
      1 C          -3.8124  -18.3651   21.2654 C.ar    1  UNL1        0.0009
      2 C          -4.1636  -18.2023   22.7146 C.ar    1  UNL1       -0.0003
      3 C          -5.5809  -18.3898   23.1684 C.ar    1  UNL1       -0.0045
      4 C          -6.6470  -18.7401   22.1731 C.ar    1  UNL1       -0.0247
      5 C          -6.2958  -18.9029   20.7239 C.ar    1  UNL1       -0.0247
      6 C          -4.8785  -18.7154   20.2701 C.ar    1  UNL1       -0.0045
      7 C          -7.5509  -19.2486   19.9788 C.3     1  UNL1        0.0437
      8 C          -8.6779  -19.2994   20.9675 C.3     1  UNL1        0.0838
      9 C          -8.1192  -18.9851   22.3236 C.3     1  UNL1        0.0437
     10 C          -2.4050  -15.7656   21.7770 C.3     1  UNL1        0.0311
     11 C          -1.6913  -16.8778   21.0673 C.ar    1  UNL1       -0.0188
     12 C          -0.2740  -16.6903   20.6135 C.ar    1  UNL1        0.0164
     13 C           0.4397  -17.8025   19.9037 C.ar    1  UNL1        0.0986
     14 N          -0.2640  -19.1023   19.6479 N.ar    1  UNL1       -0.2423
     15 C          -1.6814  -19.2898   20.1018 C.ar    1  UNL1        0.0985
     16 C          -2.3950  -18.1776   20.8115 C.ar    1  UNL1        0.0152
     17 N         -10.1117  -19.6099   20.6548 N.3     1  UNL1       -0.1841
     18 H         -10.3267  -20.4974   21.1094 H       1  UNL1        0.1484
     19 S         -11.1914  -18.6474   21.0520 S.O2    1  UNL1        0.0390
     20 O         -11.3673  -19.3799   22.3491 O.2     1  UNL1       -0.1576
     21 O         -11.0155  -17.9148   19.7549 O.2     1  UNL1       -0.1576
     22 C         -12.2711  -17.6848   21.4492 C.3     1  UNL1        0.1457
     23 C         -12.5053  -16.4444   20.6388 C.3     1  UNL1        0.0270
     24 C         -13.1165  -17.9625   22.6567 C.3     1  UNL1        0.0270
@<TRIPOS>BOND
     1    10    11    1
     2    11    12   ar
     3    12    13   ar
     4    13    14   ar
     5    14    15   ar
     6    15    16   ar
     7    16     1    1
     8     1     2   ar
     9     2     3   ar
    10     3     4   ar
    11     4     5   ar
    12     5     6   ar
    13     5     7    1
    14     7     8    1
    15     8    17    1
    16    17    19    1
    17    19    20    2
    18    19    21    2
    19    19    22    1
    20    22    23    1
    21    22    24    1
    22     8     9    1
    23    16    11   ar
    24     6     1   ar
    25     9     4    1
    26    17    18    1
@<TRIPOS>MOLECULE
*****
 24 26 0 0 0
SMALL
GASTEIGER

@<TRIPOS>ATOM
      1 C         -16.8115   -6.8649   18.6359 C.ar    1  UNL1        0.0009
      2 C         -17.4026   -5.8342   19.5514 C.ar    1  UNL1       -0.0003
      3 C         -16.5553   -4.7030   20.0537 C.ar    1  UNL1       -0.0045
      4 C         -15.1169   -4.6024   19.6403 C.ar    1  UNL1       -0.0247
      5 C         -14.5258   -5.6330   18.7247 C.ar    1  UNL1       -0.0247
      6 C         -15.3731   -6.7642   18.2225 C.ar    1  UNL1       -0.0045
      7 C         -13.0881   -5.2750   18.4906 C.3     1  UNL1        0.0437
      8 C         -12.7906   -4.0231   19.2615 C.3     1  UNL1        0.0838
      9 C         -14.0445   -3.6074   19.9721 C.3     1  UNL1        0.0437
     10 C         -16.7319   -9.5266   20.0174 C.3     1  UNL1        0.0311
     11 C         -17.6190   -9.3271   18.8244 C.ar    1  UNL1       -0.0188
     12 C         -18.4663  -10.4584   18.3222 C.ar    1  UNL1        0.0164
     13 C         -19.3534  -10.2589   17.1291 C.ar    1  UNL1        0.0986
     14 N         -19.3932   -8.9280   16.4383 N.ar    1  UNL1       -0.2423
     15 C         -18.5459   -7.7966   16.9406 C.ar    1  UNL1        0.0985
     16 C         -17.6589   -7.9962   18.1336 C.ar    1  UNL1        0.0152
     17 N         -11.4709   -3.3119   19.3127 N.3     1  UNL1       -0.1841
     18 H         -10.8594   -3.8686   19.9098 H       1  UNL1        0.1484
     19 S         -10.7132   -3.0447   18.0460 S.O2    1  UNL1        0.0390
     20 O         -11.7496   -2.0399   17.6381 O.2     1  UNL1       -0.1576
     21 O          -9.6769   -4.0494   18.4540 O.2     1  UNL1       -0.1576
     22 C          -9.9556   -2.7774   16.7793 C.3     1  UNL1        0.1457
     23 C          -8.9289   -3.7596   16.2981 C.3     1  UNL1        0.0270
     24 C         -10.2245   -1.5282   15.9939 C.3     1  UNL1        0.0270
@<TRIPOS>BOND
     1    10    11    1
     2    11    12   ar
     3    12    13   ar
     4    13    14   ar
     5    14    15   ar
     6    15    16   ar
     7    16     1    1
     8     1     2   ar
     9     2     3   ar
    10     3     4   ar
    11     4     5   ar
    12     5     6   ar
    13     5     7    1
    14     7     8    1
    15     8    17    1
    16    17    19    1
    17    19    20    2
    18    19    21    2
    19    19    22    1
    20    22    23    1
    21    22    24    1
    22     8     9    1
    23    16    11   ar
    24     6     1   ar
    25     9     4    1
    26    17    18    1
@<TRIPOS>MOLECULE
*****
 24 26 0 0 0
SMALL
GASTEIGER

@<TRIPOS>ATOM
      1 C          -4.4450  -17.5260   22.7624 C.ar    1  UNL1        0.0009
      2 C          -4.1793  -16.6620   23.9594 C.ar    1  UNL1       -0.0003
      3 C          -5.3175  -15.9832   24.6619 C.ar    1  UNL1       -0.0045
      4 C          -6.7215  -16.1683   24.1674 C.ar    1  UNL1       -0.0247
      5 C          -6.9872  -17.0322   22.9703 C.ar    1  UNL1       -0.0247
      6 C          -5.8490  -17.7111   22.2679 C.ar    1  UNL1       -0.0045
      7 C          -8.4653  -17.0281   22.7147 C.3     1  UNL1        0.0437
      8 C          -9.1130  -16.1616   23.7537 C.3     1  UNL1        0.0838
      9 C          -8.0353  -15.6302   24.6515 C.3     1  UNL1        0.0437
     10 C          -2.1698  -15.9006   21.6754 C.3     1  UNL1        0.0311
     11 C          -2.1692  -17.3922   21.5163 C.ar    1  UNL1       -0.0188
     12 C          -1.0309  -18.0710   20.8138 C.ar    1  UNL1        0.0164
     13 C          -1.0302  -19.5626   20.6548 C.ar    1  UNL1        0.0986
     14 N          -2.1678  -20.3753   21.1983 N.ar    1  UNL1       -0.2423
     15 C          -3.3061  -19.6964   21.9008 C.ar    1  UNL1        0.0985
     16 C          -3.3067  -18.2049   22.0598 C.ar    1  UNL1        0.0152
     17 N         -10.5808  -15.8765   23.8737 N.3     1  UNL1       -0.1841
     18 H         -10.7333  -14.9472   23.4819 H       1  UNL1        0.1484
     19 S         -11.5778  -16.7894   23.2236 S.O2    1  UNL1        0.0390
     20 O         -11.2591  -17.8545   24.2306 O.2     1  UNL1       -0.1576
     21 O         -11.8964  -15.7243   22.2166 O.2     1  UNL1       -0.1576
     22 C         -12.5747  -17.7024   22.5734 C.3     1  UNL1        0.1457
     23 C         -12.3645  -18.1572   21.1595 C.3     1  UNL1        0.0270
     24 C         -13.7817  -18.1605   23.3371 C.3     1  UNL1        0.0270
@<TRIPOS>BOND
     1    10    11    1
     2    11    12   ar
     3    12    13   ar
     4    13    14   ar
     5    14    15   ar
     6    15    16   ar
     7    16     1    1
     8     1     2   ar
     9     2     3   ar
    10     3     4   ar
    11     4     5   ar
    12     5     6   ar
    13     5     7    1
    14     7     8    1
    15     8    17    1
    16    17    19    1
    17    19    20    2
    18    19    21    2
    19    19    22    1
    20    22    23    1
    21    22    24    1
    22     8     9    1
    23    16    11   ar
    24     6     1   ar
    25     9     4    1
    26    17    18    1
