@<TRIPOS>MOLECULE
*****
 29 33 0 0 0
SMALL
GASTEIGER

@<TRIPOS>ATOM
      1 C          -6.0266  -19.4732   20.4324 C.ar    1  UNL1        0.1629
      2 N          -5.7588  -18.6292   21.6431 N.ar    1  UNL1       -0.2284
      3 C          -4.2744  -18.4513   21.7651 C.ar    1  UNL1        0.0666
      4 C          -3.6248  -19.1854   20.6297 C.ar    1  UNL1        0.0237
      5 S          -4.7077  -19.8169   19.8061 S.2     1  UNL1       -0.0561
      6 C          -2.1311  -19.1839   20.4925 C.3     1  UNL1        0.0343
      7 C          -1.2870  -18.4484   21.4907 C.3     1  UNL1        0.0060
      8 C          -1.9366  -17.7143   22.6261 C.3     1  UNL1        0.0107
      9 C          -3.4303  -17.7157   22.7633 C.3     1  UNL1        0.0627
     10 C          -4.0799  -16.9817   23.8987 C.ar    1  UNL1       -0.0169
     11 C          -4.9342  -15.7798   23.6237 C.ar    1  UNL1       -0.0039
     12 C          -5.5838  -15.0457   24.7591 C.ar    1  UNL1       -0.0003
     13 C          -5.3791  -15.5135   26.1695 C.ar    1  UNL1       -0.0000
     14 C          -4.5248  -16.7153   26.4445 C.ar    1  UNL1       -0.0003
     15 C          -3.8752  -17.4494   25.3091 C.ar    1  UNL1       -0.0039
     16 N          -7.3764  -19.8987   19.9353 N.pl3   1  UNL1       -0.2927
     17 H          -7.4560  -20.3867   19.0839 H       1  UNL1        0.1541
     18 C         -11.0615  -18.9450   22.3353 C.ar    1  UNL1        0.0656
     19 C          -9.7870  -19.3162   23.0336 C.ar    1  UNL1        0.0188
     20 C          -8.5586  -19.6341   22.2336 C.ar    1  UNL1        0.0161
     21 C          -8.6047  -19.5808   20.7353 C.ar    1  UNL1        0.0498
     22 C          -9.8794  -19.2096   20.0369 C.ar    1  UNL1        0.0161
     23 C         -11.1077  -18.8917   20.8369 C.ar    1  UNL1        0.0188
     24 C         -14.4593  -18.4837   26.3507 C.3     1  UNL1        0.0538
     25 C         -13.8517  -18.4151   24.9810 C.ar    1  UNL1        0.0786
     26 C         -12.4803  -18.8887   24.6000 C.ar    1  UNL1        0.0962
     27 N         -12.2900  -18.6271   23.1353 N.ar    1  UNL1       -0.2868
     28 C         -13.5436  -17.9918   22.6110 C.ar    1  UNL1        0.1825
     29 N         -14.5088  -17.8608   23.7517 N.ar    1  UNL1       -0.2280
@<TRIPOS>BOND
     1    24    25    1
     2    25    26   ar
     3    26    27   ar
     4    27    18    1
     5    18    19   ar
     6    19    20   ar
     7    20    21   ar
     8    21    16    1
     9    16     1    1
    10     1     2   ar
    11     2     3   ar
    12     3     4   ar
    13     4     5   ar
    14     4     6    1
    15     6     7    1
    16     7     8    1
    17     8     9    1
    18     9    10    1
    19    10    11   ar
    20    11    12   ar
    21    12    13   ar
    22    13    14   ar
    23    14    15   ar
    24    21    22   ar
    25    22    23   ar
    26    27    28   ar
    27    28    29   ar
    28    29    25   ar
    29    23    18   ar
    30     5     1   ar
    31    15    10   ar
    32     9     3    1
    33    16    17    1
@<TRIPOS>MOLECULE
*****
 29 33 0 0 0
SMALL
GASTEIGER

@<TRIPOS>ATOM
      1 C          -1.0176    3.6004   20.5944 C.ar    1  UNL1        0.1629
      2 N          -0.9842    3.6413   22.0934 N.ar    1  UNL1       -0.2284
      3 C          -2.3942    3.5261   22.5919 C.ar    1  UNL1        0.0666
      4 C          -3.2992    3.4140   21.4009 C.ar    1  UNL1        0.0237
      5 S          -2.4484    3.4599   20.1664 S.2     1  UNL1       -0.0561
      6 C          -4.7810    3.2847   21.5944 C.3     1  UNL1        0.0343
      7 C          -5.3578    3.2674   22.9789 C.3     1  UNL1        0.0060
      8 C          -4.4529    3.3794   24.1699 C.3     1  UNL1        0.0107
      9 C          -2.9711    3.5088   23.9764 C.3     1  UNL1        0.0627
     10 C          -2.0661    3.6209   25.1674 C.ar    1  UNL1       -0.0169
     11 C          -2.0589    4.8762   25.9884 C.ar    1  UNL1       -0.0039
     12 C          -1.1539    4.9883   27.1794 C.ar    1  UNL1       -0.0003
     13 C          -0.2562    3.8450   27.5494 C.ar    1  UNL1       -0.0000
     14 C          -0.2635    2.5896   26.7285 C.ar    1  UNL1       -0.0003
     15 C          -1.1684    2.4776   25.5375 C.ar    1  UNL1       -0.0039
     16 N           0.1710    3.6850   19.6833 N.pl3   1  UNL1       -0.2927
     17 H           0.4003    4.5395   19.2514 H       1  UNL1        0.1541
     18 C           2.6887    0.0334   18.9241 C.ar    1  UNL1        0.0656
     19 C           3.1392    1.3728   18.4211 C.ar    1  UNL1        0.0188
     20 C           2.3000    2.5900   18.6742 C.ar    1  UNL1        0.0161
     21 C           1.0102    2.4678   19.4302 C.ar    1  UNL1        0.0498
     22 C           0.5597    1.1284   19.9331 C.ar    1  UNL1        0.0161
     23 C           1.3989   -0.0888   19.6801 C.ar    1  UNL1        0.0188
     24 C           4.5051   -4.9236   19.0249 C.3     1  UNL1        0.0538
     25 C           4.3628   -3.4624   18.7174 C.ar    1  UNL1        0.0786
     26 C           3.2825   -2.5551   19.2274 C.ar    1  UNL1        0.0962
     27 N           3.5279   -1.1839   18.6710 N.ar    1  UNL1       -0.2868
     28 C           4.7598   -1.2437   17.8172 C.ar    1  UNL1        0.1825
     29 N           5.2758   -2.6518   17.8459 N.ar    1  UNL1       -0.2280
@<TRIPOS>BOND
     1    24    25    1
     2    25    26   ar
     3    26    27   ar
     4    27    18    1
     5    18    19   ar
     6    19    20   ar
     7    20    21   ar
     8    21    16    1
     9    16     1    1
    10     1     2   ar
    11     2     3   ar
    12     3     4   ar
    13     4     5   ar
    14     4     6    1
    15     6     7    1
    16     7     8    1
    17     8     9    1
    18     9    10    1
    19    10    11   ar
    20    11    12   ar
    21    12    13   ar
    22    13    14   ar
    23    14    15   ar
    24    21    22   ar
    25    22    23   ar
    26    27    28   ar
    27    28    29   ar
    28    29    25   ar
    29    23    18   ar
    30     5     1   ar
    31    15    10   ar
    32     9     3    1
    33    16    17    1
@<TRIPOS>MOLECULE
*****
 29 33 0 0 0
SMALL
GASTEIGER

@<TRIPOS>ATOM
      1 C          -0.9383    3.1767   21.9659 C.ar    1  UNL1        0.1629
      2 N          -2.3256    3.5312   22.4126 N.ar    1  UNL1       -0.2284
      3 C          -2.3540    3.4922   23.9118 C.ar    1  UNL1        0.0666
      4 C          -0.9842    3.1136   24.3917 C.ar    1  UNL1        0.0237
      5 S          -0.1093    2.9186   23.1890 S.2     1  UNL1       -0.0561
      6 C          -0.7106    2.9953   25.8617 C.3     1  UNL1        0.0343
      7 C          -1.8068    3.2557   26.8519 C.3     1  UNL1        0.0060
      8 C          -3.1766    3.6343   26.3721 C.3     1  UNL1        0.0107
      9 C          -3.4502    3.7526   24.9020 C.3     1  UNL1        0.0627
     10 C          -4.8201    4.1312   24.4221 C.ar    1  UNL1       -0.0169
     11 C          -5.3415    3.5775   23.1293 C.ar    1  UNL1       -0.0039
     12 C          -6.7113    3.9561   22.6495 C.ar    1  UNL1       -0.0003
     13 C          -7.5597    4.8885   23.4624 C.ar    1  UNL1       -0.0000
     14 C          -7.0382    5.4423   24.7552 C.ar    1  UNL1       -0.0003
     15 C          -5.6684    5.0636   25.2351 C.ar    1  UNL1       -0.0039
     16 N          -0.4634    3.0946   20.5454 N.pl3   1  UNL1       -0.2927
     17 H          -0.7719    3.7556   19.8843 H       1  UNL1        0.1541
     18 C           2.3716   -0.1729   19.3060 C.ar    1  UNL1        0.0656
     19 C           2.6679    1.2531   18.9473 C.ar    1  UNL1        0.0188
     20 C           1.7229    2.3423   19.3604 C.ar    1  UNL1        0.0161
     21 C           0.4816    2.0055   20.1323 C.ar    1  UNL1        0.0498
     22 C           0.1854    0.5794   20.4910 C.ar    1  UNL1        0.0161
     23 C           1.1303   -0.5097   20.0778 C.ar    1  UNL1        0.0188
     24 C           4.7295   -4.8772   18.8687 C.3     1  UNL1        0.0538
     25 C           4.4004   -3.4245   18.6919 C.ar    1  UNL1        0.0786
     26 C           3.2728   -2.6890   19.3535 C.ar    1  UNL1        0.0962
     27 N           3.3167   -1.2621   18.8929 N.ar    1  UNL1       -0.2868
     28 C           4.4713   -1.1157   17.9467 C.ar    1  UNL1        0.1825
     29 N           5.1412   -2.4521   17.8225 N.ar    1  UNL1       -0.2280
@<TRIPOS>BOND
     1    24    25    1
     2    25    26   ar
     3    26    27   ar
     4    27    18    1
     5    18    19   ar
     6    19    20   ar
     7    20    21   ar
     8    21    16    1
     9    16     1    1
    10     1     2   ar
    11     2     3   ar
    12     3     4   ar
    13     4     5   ar
    14     4     6    1
    15     6     7    1
    16     7     8    1
    17     8     9    1
    18     9    10    1
    19    10    11   ar
    20    11    12   ar
    21    12    13   ar
    22    13    14   ar
    23    14    15   ar
    24    21    22   ar
    25    22    23   ar
    26    27    28   ar
    27    28    29   ar
    28    29    25   ar
    29    23    18   ar
    30     5     1   ar
    31    15    10   ar
    32     9     3    1
    33    16    17    1
@<TRIPOS>MOLECULE
*****
 29 33 0 0 0
SMALL
GASTEIGER

@<TRIPOS>ATOM
      1 C          -8.8460  -19.6704   20.9084 C.ar    1  UNL1        0.1629
      2 N          -8.7945  -18.8752   22.1793 N.ar    1  UNL1       -0.2284
      3 C         -10.0627  -18.0806   22.2806 C.ar    1  UNL1        0.0666
      4 C         -10.8980  -18.3847   21.0724 C.ar    1  UNL1        0.0237
      5 S         -10.1460  -19.3672   20.2244 S.2     1  UNL1       -0.0561
      6 C         -12.2355  -17.7277   20.9006 C.3     1  UNL1        0.0343
      7 C         -12.7376  -16.7666   21.9369 C.3     1  UNL1        0.0060
      8 C         -11.9023  -16.4625   23.1451 C.3     1  UNL1        0.0107
      9 C         -10.5649  -17.1195   23.3170 C.3     1  UNL1        0.0627
     10 C          -9.7296  -16.8154   24.5252 C.ar    1  UNL1       -0.0169
     11 C          -9.7113  -17.7683   25.6835 C.ar    1  UNL1       -0.0039
     12 C          -8.8760  -17.4642   26.8917 C.ar    1  UNL1       -0.0003
     13 C          -8.0590  -16.2072   26.9417 C.ar    1  UNL1       -0.0000
     14 C          -8.0773  -15.2544   25.7834 C.ar    1  UNL1       -0.0003
     15 C          -8.9126  -15.5585   24.5752 C.ar    1  UNL1       -0.0039
     16 N          -7.7839  -20.6046   20.4093 N.pl3   1  UNL1       -0.2927
     17 H          -8.0051  -21.5449   20.2192 H       1  UNL1        0.1541
     18 C          -3.5863  -19.1095   19.7809 C.ar    1  UNL1        0.0656
     19 C          -4.7284  -18.1385   19.8325 C.ar    1  UNL1        0.0188
     20 C          -6.1276  -18.6369   20.0419 C.ar    1  UNL1        0.0161
     21 C          -6.3847  -20.1062   20.1998 C.ar    1  UNL1        0.0498
     22 C          -5.2425  -21.0772   20.1483 C.ar    1  UNL1        0.0161
     23 C          -3.8433  -20.5789   19.9388 C.ar    1  UNL1        0.0188
     24 C           1.4141  -17.6620   20.6653 C.3     1  UNL1        0.0538
     25 C           0.1114  -17.9458   19.9780 C.ar    1  UNL1        0.0786
     26 C          -1.1296  -18.4825   20.6276 C.ar    1  UNL1        0.0962
     27 N          -2.1870  -18.6112   19.5715 N.ar    1  UNL1       -0.2868
     28 C          -1.5996  -18.1540   18.2692 C.ar    1  UNL1        0.1825
     29 N          -0.1791  -17.7428   18.5204 N.ar    1  UNL1       -0.2280
@<TRIPOS>BOND
     1    24    25    1
     2    25    26   ar
     3    26    27   ar
     4    27    18    1
     5    18    19   ar
     6    19    20   ar
     7    20    21   ar
     8    21    16    1
     9    16     1    1
    10     1     2   ar
    11     2     3   ar
    12     3     4   ar
    13     4     5   ar
    14     4     6    1
    15     6     7    1
    16     7     8    1
    17     8     9    1
    18     9    10    1
    19    10    11   ar
    20    11    12   ar
    21    12    13   ar
    22    13    14   ar
    23    14    15   ar
    24    21    22   ar
    25    22    23   ar
    26    27    28   ar
    27    28    29   ar
    28    29    25   ar
    29    23    18   ar
    30     5     1   ar
    31    15    10   ar
    32     9     3    1
    33    16    17    1
@<TRIPOS>MOLECULE
*****
 29 33 0 0 0
SMALL
GASTEIGER

@<TRIPOS>ATOM
      1 C          -0.9570    3.2374   22.3102 C.ar    1  UNL1        0.1629
      2 N          -0.6004    2.9901   23.7460 N.ar    1  UNL1       -0.2284
      3 C          -1.8101    3.2868   24.5818 C.ar    1  UNL1        0.0666
      4 C          -2.9144    3.7175   23.6625 C.ar    1  UNL1        0.0237
      5 S          -2.3872    3.6869   22.2586 S.2     1  UNL1       -0.0561
      6 C          -4.2573    4.0818   24.2226 C.3     1  UNL1        0.0343
      7 C          -4.4960    4.0154   25.7020 C.3     1  UNL1        0.0060
      8 C          -3.3917    3.5847   26.6213 C.3     1  UNL1        0.0107
      9 C          -2.0488    3.2204   26.0612 C.3     1  UNL1        0.0627
     10 C          -0.9445    2.7897   26.9805 C.ar    1  UNL1       -0.0169
     11 C          -0.5888    1.3372   27.0965 C.ar    1  UNL1       -0.0039
     12 C           0.5154    0.9065   28.0157 C.ar    1  UNL1       -0.0003
     13 C           1.2640    1.9283   28.8191 C.ar    1  UNL1       -0.0000
     14 C           0.9083    3.3809   28.7031 C.ar    1  UNL1       -0.0003
     15 C          -0.1960    3.8116   27.7838 C.ar    1  UNL1       -0.0039
     16 N          -0.0439    3.0653   21.1326 N.pl3   1  UNL1       -0.2927
     17 H           0.0154    3.7708   20.4485 H       1  UNL1        0.1541
     18 C           2.4247   -0.6752   20.7273 C.ar    1  UNL1        0.0656
     19 C           1.0359   -0.6283   20.1625 C.ar    1  UNL1        0.0188
     20 C           0.2130    0.6186   20.2977 C.ar    1  UNL1        0.0161
     21 C           0.7790    1.8185   20.9975 C.ar    1  UNL1        0.0498
     22 C           2.1679    1.7716   21.5623 C.ar    1  UNL1        0.0161
     23 C           2.9907    0.5248   21.4271 C.ar    1  UNL1        0.0188
     24 C           4.6573   -5.0278   18.7394 C.3     1  UNL1        0.0538
     25 C           4.2738   -3.9227   19.6784 C.ar    1  UNL1        0.0786
     26 C           3.3427   -2.7875   19.3707 C.ar    1  UNL1        0.0962
     27 N           3.2477   -1.9220   20.5922 N.ar    1  UNL1       -0.2868
     28 C           4.1199   -2.5223   21.6547 C.ar    1  UNL1        0.1825
     29 N           4.7541   -3.7587   21.0900 N.ar    1  UNL1       -0.2280
@<TRIPOS>BOND
     1    24    25    1
     2    25    26   ar
     3    26    27   ar
     4    27    18    1
     5    18    19   ar
     6    19    20   ar
     7    20    21   ar
     8    21    16    1
     9    16     1    1
    10     1     2   ar
    11     2     3   ar
    12     3     4   ar
    13     4     5   ar
    14     4     6    1
    15     6     7    1
    16     7     8    1
    17     8     9    1
    18     9    10    1
    19    10    11   ar
    20    11    12   ar
    21    12    13   ar
    22    13    14   ar
    23    14    15   ar
    24    21    22   ar
    25    22    23   ar
    26    27    28   ar
    27    28    29   ar
    28    29    25   ar
    29    23    18   ar
    30     5     1   ar
    31    15    10   ar
    32     9     3    1
    33    16    17    1
@<TRIPOS>MOLECULE
*****
 29 33 0 0 0
SMALL
GASTEIGER

@<TRIPOS>ATOM
      1 C          -3.3674    3.1160   20.5314 C.ar    1  UNL1        0.1629
      2 N          -2.0595    2.3886   20.6324 N.ar    1  UNL1       -0.2284
      3 C          -1.0314    3.1761   19.8754 C.ar    1  UNL1        0.0666
      4 C          -1.7040    4.3902   19.3065 C.ar    1  UNL1        0.0237
      5 S          -3.1477    4.3531   19.7119 S.2     1  UNL1       -0.0561
      6 C          -0.9149    5.3726   18.4928 C.3     1  UNL1        0.0343
      7 C           0.5467    5.1410   18.2480 C.3     1  UNL1        0.0060
      8 C           1.2192    3.9269   18.8169 C.3     1  UNL1        0.0107
      9 C           0.4302    2.9444   19.6306 C.3     1  UNL1        0.0627
     10 C           1.1027    1.7303   20.1994 C.ar    1  UNL1       -0.0169
     11 C           1.1348    0.4532   19.4134 C.ar    1  UNL1       -0.0039
     12 C           1.8074   -0.7609   19.9823 C.ar    1  UNL1       -0.0003
     13 C           2.4478   -0.6979   21.3372 C.ar    1  UNL1       -0.0000
     14 C           2.4157    0.5792   22.1232 C.ar    1  UNL1       -0.0003
     15 C           1.7432    1.7933   21.5543 C.ar    1  UNL1       -0.0039
     16 N          -4.6669    2.6825   21.1425 N.pl3   1  UNL1       -0.2927
     17 H          -5.1313    1.8857   20.7980 H       1  UNL1        0.1541
     18 C          -6.4427    5.0242   24.5503 C.ar    1  UNL1        0.0656
     19 C          -7.0491    5.1153   23.1814 C.ar    1  UNL1        0.0188
     20 C          -6.4571    4.3347   22.0454 C.ar    1  UNL1        0.0161
     21 C          -5.2588    3.4631   22.2784 C.ar    1  UNL1        0.0498
     22 C          -4.6524    3.3720   23.6474 C.ar    1  UNL1        0.0161
     23 C          -5.2444    4.1526   24.7833 C.ar    1  UNL1        0.0188
     24 C          -7.1657    7.2127   29.3010 C.3     1  UNL1        0.0538
     25 C          -7.3669    6.8107   27.8699 C.ar    1  UNL1        0.0786
     26 C          -6.4464    5.9477   27.0587 C.ar    1  UNL1        0.0962
     27 N          -7.0346    5.8048   25.6863 N.ar    1  UNL1       -0.2868
     28 C          -8.3186    6.5794   25.6492 C.ar    1  UNL1        0.1825
     29 N          -8.5240    7.2011   26.9988 N.ar    1  UNL1       -0.2280
@<TRIPOS>BOND
     1    24    25    1
     2    25    26   ar
     3    26    27   ar
     4    27    18    1
     5    18    19   ar
     6    19    20   ar
     7    20    21   ar
     8    21    16    1
     9    16     1    1
    10     1     2   ar
    11     2     3   ar
    12     3     4   ar
    13     4     5   ar
    14     4     6    1
    15     6     7    1
    16     7     8    1
    17     8     9    1
    18     9    10    1
    19    10    11   ar
    20    11    12   ar
    21    12    13   ar
    22    13    14   ar
    23    14    15   ar
    24    21    22   ar
    25    22    23   ar
    26    27    28   ar
    27    28    29   ar
    28    29    25   ar
    29    23    18   ar
    30     5     1   ar
    31    15    10   ar
    32     9     3    1
    33    16    17    1
@<TRIPOS>MOLECULE
*****
 29 33 0 0 0
SMALL
GASTEIGER

@<TRIPOS>ATOM
      1 C          -1.3589    4.0291   19.6260 C.ar    1  UNL1        0.1629
      2 N          -2.3804    4.1025   20.7220 N.ar    1  UNL1       -0.2284
      3 C          -3.7404    4.0239   20.0941 C.ar    1  UNL1        0.0666
      4 C          -3.5595    3.9020   18.6101 C.ar    1  UNL1        0.0237
      5 S          -2.0877    3.9052   18.3208 S.2     1  UNL1       -0.0561
      6 C          -4.7583    3.8038   17.7139 C.3     1  UNL1        0.0343
      7 C          -6.1381    3.8276   18.3018 C.3     1  UNL1        0.0060
      8 C          -6.3190    3.9495   19.7859 C.3     1  UNL1        0.0107
      9 C          -5.1202    4.0477   20.6820 C.3     1  UNL1        0.0627
     10 C          -5.3012    4.1696   22.1661 C.ar    1  UNL1       -0.0169
     11 C          -4.6895    3.1517   23.0824 C.ar    1  UNL1       -0.0039
     12 C          -4.8704    3.2736   24.5664 C.ar    1  UNL1       -0.0003
     13 C          -5.6631    4.4135   25.1342 C.ar    1  UNL1       -0.0000
     14 C          -6.2747    5.4314   24.2179 C.ar    1  UNL1       -0.0003
     15 C          -6.0938    5.3095   22.7338 C.ar    1  UNL1       -0.0039
     16 N           0.1298    4.0720   19.8040 N.pl3   1  UNL1       -0.2927
     17 H           0.5646    4.8982   20.1164 H       1  UNL1        0.1541
     18 C           2.6090    0.4245   18.9101 C.ar    1  UNL1        0.0656
     19 C           1.3247    0.2898   19.6732 C.ar    1  UNL1        0.0188
     20 C           0.4983    1.5057   19.9712 C.ar    1  UNL1        0.0161
     21 C           0.9562    2.8562   19.5061 C.ar    1  UNL1        0.0498
     22 C           2.2406    2.9909   18.7430 C.ar    1  UNL1        0.0161
     23 C           3.0670    1.7751   18.4450 C.ar    1  UNL1        0.0188
     24 C           4.5273   -4.4938   19.0187 C.3     1  UNL1        0.0538
     25 C           4.3172   -3.0521   18.6620 C.ar    1  UNL1        0.0786
     26 C           3.2901   -2.1365   19.2597 C.ar    1  UNL1        0.0962
     27 N           3.4355   -0.7914   18.6121 N.ar    1  UNL1       -0.2868
     28 C           4.5522   -0.8755   17.6142 C.ar    1  UNL1        0.1825
     29 N           5.0972   -2.2726   17.6451 N.ar    1  UNL1       -0.2280
@<TRIPOS>BOND
     1    24    25    1
     2    25    26   ar
     3    26    27   ar
     4    27    18    1
     5    18    19   ar
     6    19    20   ar
     7    20    21   ar
     8    21    16    1
     9    16     1    1
    10     1     2   ar
    11     2     3   ar
    12     3     4   ar
    13     4     5   ar
    14     4     6    1
    15     6     7    1
    16     7     8    1
    17     8     9    1
    18     9    10    1
    19    10    11   ar
    20    11    12   ar
    21    12    13   ar
    22    13    14   ar
    23    14    15   ar
    24    21    22   ar
    25    22    23   ar
    26    27    28   ar
    27    28    29   ar
    28    29    25   ar
    29    23    18   ar
    30     5     1   ar
    31    15    10   ar
    32     9     3    1
    33    16    17    1
@<TRIPOS>MOLECULE
*****
 29 33 0 0 0
SMALL
GASTEIGER

@<TRIPOS>ATOM
      1 C          -0.9812    3.5028   21.6938 C.ar    1  UNL1        0.1629
      2 N          -2.3747    3.7133   21.1803 N.ar    1  UNL1       -0.2284
      3 C          -3.3016    3.7558   22.3589 C.ar    1  UNL1        0.0666
      4 C          -2.4809    3.5715   23.6009 C.ar    1  UNL1        0.0237
      5 S          -1.0468    3.4152   23.1898 S.2     1  UNL1       -0.0561
      6 C          -3.1455    3.5699   24.9456 C.3     1  UNL1        0.0343
      7 C          -4.6307    3.7525   25.0484 C.3     1  UNL1        0.0060
      8 C          -5.4514    3.9368   23.8064 C.3     1  UNL1        0.0107
      9 C          -4.7869    3.9384   22.4617 C.3     1  UNL1        0.0627
     10 C          -5.6076    4.1227   21.2197 C.ar    1  UNL1       -0.0169
     11 C          -5.4491    3.1744   20.0684 C.ar    1  UNL1       -0.0039
     12 C          -6.2698    3.3586   18.8265 C.ar    1  UNL1       -0.0003
     13 C          -7.2490    4.4912   18.7358 C.ar    1  UNL1       -0.0000
     14 C          -7.4075    5.4396   19.8871 C.ar    1  UNL1       -0.0003
     15 C          -6.5868    5.2553   21.1290 C.ar    1  UNL1       -0.0039
     16 N           0.2600    3.3984   20.8581 N.pl3   1  UNL1       -0.2927
     17 H           0.5815    4.1807   20.3543 H       1  UNL1        0.1541
     18 C           2.5142   -0.4910   20.6538 C.ar    1  UNL1        0.0656
     19 C           3.2132    0.7584   21.1013 C.ar    1  UNL1        0.0188
     20 C           2.4619    2.0549   21.1694 C.ar    1  UNL1        0.0161
     21 C           1.0114    2.1019   20.7900 C.ar    1  UNL1        0.0498
     22 C           0.3123    0.8525   20.3425 C.ar    1  UNL1        0.0161
     23 C           1.0637   -0.4440   20.2744 C.ar    1  UNL1        0.0188
     24 C           4.5310   -5.0394   18.8860 C.3     1  UNL1        0.0538
     25 C           4.1926   -3.8782   19.7731 C.ar    1  UNL1        0.0786
     26 C           3.3363   -2.7042   19.4005 C.ar    1  UNL1        0.0962
     27 N           3.2655   -1.7875   20.5857 N.ar    1  UNL1       -0.2868
     28 C           4.0779   -2.3949   21.6907 C.ar    1  UNL1        0.1825
     29 N           4.6508   -3.6870   21.1886 N.ar    1  UNL1       -0.2280
@<TRIPOS>BOND
     1    24    25    1
     2    25    26   ar
     3    26    27   ar
     4    27    18    1
     5    18    19   ar
     6    19    20   ar
     7    20    21   ar
     8    21    16    1
     9    16     1    1
    10     1     2   ar
    11     2     3   ar
    12     3     4   ar
    13     4     5   ar
    14     4     6    1
    15     6     7    1
    16     7     8    1
    17     8     9    1
    18     9    10    1
    19    10    11   ar
    20    11    12   ar
    21    12    13   ar
    22    13    14   ar
    23    14    15   ar
    24    21    22   ar
    25    22    23   ar
    26    27    28   ar
    27    28    29   ar
    28    29    25   ar
    29    23    18   ar
    30     5     1   ar
    31    15    10   ar
    32     9     3    1
    33    16    17    1
@<TRIPOS>MOLECULE
*****
 29 33 0 0 0
SMALL
GASTEIGER

@<TRIPOS>ATOM
      1 C           5.5715   -1.5688   23.1873 C.ar    1  UNL1        0.1629
      2 N           4.5345   -1.0238   22.2505 N.ar    1  UNL1       -0.2284
      3 C           4.4303   -1.9568   21.0806 C.ar    1  UNL1        0.0666
      4 C           5.4030   -3.0786   21.2944 C.ar    1  UNL1        0.0237
      5 S           6.1082   -2.8387   22.5964 S.2     1  UNL1       -0.0561
      6 C           5.5207   -4.1734   20.2759 C.3     1  UNL1        0.0343
      7 C           4.6659   -4.1465   19.0437 C.3     1  UNL1        0.0060
      8 C           3.6933   -3.0248   18.8299 C.3     1  UNL1        0.0107
      9 C           3.5755   -1.9299   19.8484 C.3     1  UNL1        0.0627
     10 C           2.6029   -0.8082   19.6346 C.ar    1  UNL1       -0.0169
     11 C           2.9069    0.2678   18.6348 C.ar    1  UNL1       -0.0039
     12 C           1.9343    1.3895   18.4210 C.ar    1  UNL1       -0.0003
     13 C           0.6576    1.4353   19.2071 C.ar    1  UNL1       -0.0000
     14 C           0.3536    0.3593   20.2070 C.ar    1  UNL1       -0.0003
     15 C           1.3262   -0.7624   20.4208 C.ar    1  UNL1       -0.0039
     16 N           5.9971   -0.9522   24.4868 N.pl3   1  UNL1       -0.2927
     17 H           6.9522   -0.7976   24.6688 H       1  UNL1        0.1541
     18 C           2.9082    0.1910   27.5531 C.ar    1  UNL1        0.0656
     19 C           3.5581   -1.1597   27.6106 C.ar    1  UNL1        0.0188
     20 C           4.5877   -1.5408   26.5885 C.ar    1  UNL1        0.0161
     21 C           4.9675   -0.5712   25.5089 C.ar    1  UNL1        0.0498
     22 C           4.3176    0.7796   25.4513 C.ar    1  UNL1        0.0161
     23 C           3.2880    1.1606   26.4734 C.ar    1  UNL1        0.0188
     24 C           0.4430    2.6492   31.5231 C.3     1  UNL1        0.0538
     25 C           0.7455    1.7020   30.4000 C.ar    1  UNL1        0.0786
     26 C           2.0037    1.6755   29.5836 C.ar    1  UNL1        0.0962
     27 N           1.8786    0.5721   28.5752 N.ar    1  UNL1       -0.2868
     28 C           0.5432   -0.0833   28.7683 C.ar    1  UNL1        0.1825
     29 N          -0.1571    0.6150   29.8961 N.ar    1  UNL1       -0.2280
@<TRIPOS>BOND
     1    24    25    1
     2    25    26   ar
     3    26    27   ar
     4    27    18    1
     5    18    19   ar
     6    19    20   ar
     7    20    21   ar
     8    21    16    1
     9    16     1    1
    10     1     2   ar
    11     2     3   ar
    12     3     4   ar
    13     4     5   ar
    14     4     6    1
    15     6     7    1
    16     7     8    1
    17     8     9    1
    18     9    10    1
    19    10    11   ar
    20    11    12   ar
    21    12    13   ar
    22    13    14   ar
    23    14    15   ar
    24    21    22   ar
    25    22    23   ar
    26    27    28   ar
    27    28    29   ar
    28    29    25   ar
    29    23    18   ar
    30     5     1   ar
    31    15    10   ar
    32     9     3    1
    33    16    17    1
