@<TRIPOS>MOLECULE
*****
 31 35 0 0 0
SMALL
GASTEIGER

@<TRIPOS>ATOM
      1 C         -10.6355  -19.2077   22.6370 C.2     1  UNL1        0.2685
      2 O         -10.5682  -20.5651   22.0021 O.2     1  UNL1       -0.2682
      3 N          -9.4326  -18.3118   22.6208 N.am    1  UNL1       -0.2723
      4 C          -8.1625  -18.7731   21.9697 C.3     1  UNL1        0.0761
      5 C          -7.5033  -18.1436   20.7784 C.3     1  UNL1        0.0213
      6 C          -6.2619  -18.9264   20.4680 C.3     1  UNL1        0.0188
      7 C          -5.0874  -19.0211   19.5399 C.3     1  UNL1        0.0686
      8 N          -4.2535  -20.1930   19.9658 N.3     1  UNL1       -0.2975
      9 C          -4.9126  -20.8225   21.1571 C.3     1  UNL1        0.0686
     10 C          -6.1540  -20.0397   21.4675 C.3     1  UNL1        0.0188
     11 C          -7.3285  -19.9450   22.3956 C.3     1  UNL1        0.0213
     12 H          -3.3158  -19.8782   20.2151 H       1  UNL1        0.1232
     13 C         -14.4764  -18.4577   26.1817 C.3     1  UNL1        0.1321
     14 N         -13.6711  -18.4017   24.9174 N.ar    1  UNL1       -0.3057
     15 C         -14.0492  -17.6716   23.6629 C.ar    1  UNL1        0.1787
     16 N         -12.9580  -17.8847   22.6559 N.ar    1  UNL1       -0.2192
     17 C         -11.9056  -18.7464   23.2881 C.ar    1  UNL1        0.1535
     18 C         -12.3463  -19.0660   24.6858 C.ar    1  UNL1        0.1012
     19 C          -9.4999  -16.9544   23.2557 C.3     1  UNL1        0.1205
     20 C          -8.3422  -16.4457   24.0626 C.ar    1  UNL1        0.0007
     21 C          -8.4725  -16.2960   25.5494 C.ar    1  UNL1       -0.0024
     22 C          -7.3147  -15.7872   26.3563 C.ar    1  UNL1        0.0028
     23 C          -6.0269  -15.4283   25.6762 C.ar    1  UNL1        0.0369
     24 C          -5.8966  -15.5780   24.1895 C.ar    1  UNL1        0.1381
     25 C          -7.0543  -16.0867   23.3826 C.ar    1  UNL1        0.0343
     26 O          -4.6087  -15.2190   23.5094 O.3     1  UNL1       -0.4792
     27 C          -3.7180  -16.2996   22.9716 C.3     1  UNL1        0.1659
     28 C          -3.7865  -17.7558   23.3250 C.3     1  UNL1        0.0435
     29 C          -2.7133  -18.4699   22.5578 C.3     1  UNL1        0.0038
     30 C          -1.9817  -17.4550   21.7304 C.3     1  UNL1        0.0038
     31 C          -2.6026  -16.1137   21.9861 C.3     1  UNL1        0.0435
@<TRIPOS>BOND
     1    13    14    1
     2    14    15   ar
     3    15    16   ar
     4    16    17   ar
     5    17     1    1
     6     1     2    2
     7     1     3   am
     8     3    19    1
     9    19    20    1
    10    20    21   ar
    11    21    22   ar
    12    22    23   ar
    13    23    24   ar
    14    24    26    1
    15    26    27    1
    16    27    28    1
    17    28    29    1
    18    29    30    1
    19    30    31    1
    20    24    25   ar
    21     4     3    1
    22     4     5    1
    23     6     5    1
    24     6     7    1
    25     7     8    1
    26     8     9    1
    27    10     9    1
    28    10    11    1
    29    17    18   ar
    30    18    14   ar
    31    25    20   ar
    32    11     4    1
    33    31    27    1
    34    10     6    1
    35     8    12    1
@<TRIPOS>MOLECULE
*****
 31 35 0 0 0
SMALL
GASTEIGER

@<TRIPOS>ATOM
      1 C          -5.2670  -16.0386   23.3018 C.2     1  UNL1        0.2685
      2 O          -4.3589  -14.8655   23.0806 O.2     1  UNL1       -0.2682
      3 N          -4.9776  -17.3482   22.6302 N.am    1  UNL1       -0.2723
      4 C          -3.7800  -17.4847   21.7374 C.3     1  UNL1        0.0761
      5 C          -2.3547  -17.2292   22.1289 C.3     1  UNL1        0.0213
      6 C          -1.4912  -17.4873   20.9298 C.3     1  UNL1        0.0188
      7 C          -0.0767  -17.4888   20.4307 C.3     1  UNL1        0.0686
      8 N          -0.0942  -17.9048   18.9896 N.3     1  UNL1       -0.2975
      9 C          -1.5194  -18.1604   18.5981 C.3     1  UNL1        0.0686
     10 C          -2.3829  -17.9023   19.7972 C.3     1  UNL1        0.0188
     11 C          -3.7974  -17.9008   20.2963 C.3     1  UNL1        0.0213
     12 H           0.4560  -18.7551   18.8682 H       1  UNL1        0.1232
     13 C          -8.2949  -15.4653   27.5894 C.3     1  UNL1        0.1321
     14 N          -7.8564  -15.6386   26.1654 N.ar    1  UNL1       -0.3057
     15 C          -8.7585  -15.7453   24.9718 C.ar    1  UNL1        0.1787
     16 N          -7.8983  -15.9081   23.7538 N.ar    1  UNL1       -0.2192
     17 C          -6.4646  -15.9021   24.1946 C.ar    1  UNL1        0.1535
     18 C          -6.4387  -15.7354   25.6851 C.ar    1  UNL1        0.1012
     19 C          -5.8858  -18.5214   22.8514 C.3     1  UNL1        0.1205
     20 C          -6.7380  -19.0324   21.7278 C.ar    1  UNL1        0.0007
     21 C          -6.3080  -20.2407   20.9500 C.ar    1  UNL1       -0.0024
     22 C          -7.1603  -20.7518   19.8262 C.ar    1  UNL1        0.0028
     23 C          -8.4425  -20.0544   19.4806 C.ar    1  UNL1        0.0369
     24 C          -8.8725  -18.8462   20.2584 C.ar    1  UNL1        0.1381
     25 C          -8.0203  -18.3351   21.3820 C.ar    1  UNL1        0.0343
     26 O         -10.1548  -18.1488   19.9127 O.3     1  UNL1       -0.4792
     27 C         -11.0229  -17.5920   21.0018 C.3     1  UNL1        0.1659
     28 C         -11.2129  -16.1388   21.3219 C.3     1  UNL1        0.0435
     29 C         -12.1609  -16.0393   22.4800 C.3     1  UNL1        0.0038
     30 C         -12.5568  -17.4309   22.8758 C.3     1  UNL1        0.0038
     31 C         -11.8536  -18.3905   21.9622 C.3     1  UNL1        0.0435
@<TRIPOS>BOND
     1    13    14    1
     2    14    15   ar
     3    15    16   ar
     4    16    17   ar
     5    17     1    1
     6     1     2    2
     7     1     3   am
     8     3    19    1
     9    19    20    1
    10    20    21   ar
    11    21    22   ar
    12    22    23   ar
    13    23    24   ar
    14    24    26    1
    15    26    27    1
    16    27    28    1
    17    28    29    1
    18    29    30    1
    19    30    31    1
    20    24    25   ar
    21     4     3    1
    22     4     5    1
    23     6     5    1
    24     6     7    1
    25     7     8    1
    26     8     9    1
    27    10     9    1
    28    10    11    1
    29    17    18   ar
    30    18    14   ar
    31    25    20   ar
    32    11     4    1
    33    31    27    1
    34    10     6    1
    35     8    12    1
@<TRIPOS>MOLECULE
*****
 31 35 0 0 0
SMALL
GASTEIGER

@<TRIPOS>ATOM
      1 C         -19.2668   -4.3647   19.3412 C.2     1  UNL1        0.2685
      2 O         -20.3364   -5.1786   20.0070 O.2     1  UNL1       -0.2682
      3 N         -18.1160   -5.0485   18.6643 N.am    1  UNL1       -0.2723
      4 C         -18.0349   -6.5462   18.6533 C.3     1  UNL1        0.0761
      5 C         -18.7348   -7.4601   17.6915 C.3     1  UNL1        0.0213
      6 C         -18.3721   -8.8718   18.0459 C.3     1  UNL1        0.0188
      7 C         -18.5804  -10.3090   17.6705 C.3     1  UNL1        0.0686
      8 N         -17.7852  -11.1558   18.6194 N.3     1  UNL1       -0.2975
      9 C         -17.0853  -10.2420   19.5812 C.3     1  UNL1        0.0686
     10 C         -17.4480   -8.8304   19.2268 C.3     1  UNL1        0.0188
     11 C         -17.2396   -7.3931   19.6022 C.3     1  UNL1        0.0213
     12 H         -17.0988  -11.7046   18.1015 H       1  UNL1        0.1232
     13 C         -18.8793    0.6743   20.8708 C.3     1  UNL1        0.1321
     14 N         -19.1699   -0.5508   20.0553 N.ar    1  UNL1       -0.3057
     15 C         -19.7758   -0.5734   18.6834 C.ar    1  UNL1        0.1787
     16 N         -19.8859   -2.0049   18.2489 N.ar    1  UNL1       -0.2192
     17 C         -19.3480   -2.8669   19.3522 C.ar    1  UNL1        0.1535
     18 C         -18.9054   -1.9682   20.4687 C.ar    1  UNL1        0.1012
     19 C         -17.0464   -4.2345   17.9984 C.3     1  UNL1        0.1205
     20 C         -15.6888   -4.1227   18.6265 C.ar    1  UNL1        0.0007
     21 C         -15.5591   -3.7227   20.0663 C.ar    1  UNL1       -0.0024
     22 C         -14.2014   -3.6109   20.6944 C.ar    1  UNL1        0.0028
     23 C         -12.9736   -3.8993   19.8824 C.ar    1  UNL1        0.0369
     24 C         -13.1033   -4.2993   18.4427 C.ar    1  UNL1        0.1381
     25 C         -14.4609   -4.4111   17.8146 C.ar    1  UNL1        0.0343
     26 O         -11.8753   -4.5877   17.6308 O.3     1  UNL1       -0.4792
     27 C         -11.0640   -5.8182   17.9093 C.3     1  UNL1        0.1659
     28 C         -10.0508   -5.9772   19.0040 C.3     1  UNL1        0.0435
     29 C          -9.4841   -7.3630   18.9133 C.3     1  UNL1        0.0038
     30 C         -10.1469   -8.0605   17.7626 C.3     1  UNL1        0.0038
     31 C         -11.1234   -7.1058   17.1421 C.3     1  UNL1        0.0435
@<TRIPOS>BOND
     1    13    14    1
     2    14    15   ar
     3    15    16   ar
     4    16    17   ar
     5    17     1    1
     6     1     2    2
     7     1     3   am
     8     3    19    1
     9    19    20    1
    10    20    21   ar
    11    21    22   ar
    12    22    23   ar
    13    23    24   ar
    14    24    26    1
    15    26    27    1
    16    27    28    1
    17    28    29    1
    18    29    30    1
    19    30    31    1
    20    24    25   ar
    21     4     3    1
    22     4     5    1
    23     6     5    1
    24     6     7    1
    25     7     8    1
    26     8     9    1
    27    10     9    1
    28    10    11    1
    29    17    18   ar
    30    18    14   ar
    31    25    20   ar
    32    11     4    1
    33    31    27    1
    34    10     6    1
    35     8    12    1
@<TRIPOS>MOLECULE
*****
 31 35 0 0 0
SMALL
GASTEIGER

@<TRIPOS>ATOM
      1 C           7.3067   -4.8996   24.2830 C.2     1  UNL1        0.2685
      2 O           7.6633   -5.9429   23.2659 O.2     1  UNL1       -0.2682
      3 N           6.4513   -3.7315   23.8909 N.am    1  UNL1       -0.2723
      4 C           5.9525   -3.6066   22.4819 C.3     1  UNL1        0.0761
      5 C           4.5734   -3.9487   22.0012 C.3     1  UNL1        0.0213
      6 C           4.5138   -3.6712   20.5283 C.3     1  UNL1        0.0188
      7 C           3.6245   -3.7112   19.3209 C.3     1  UNL1        0.0686
      8 N           4.4172   -3.2222   18.1451 N.3     1  UNL1       -0.2975
      9 C           5.7964   -2.8801   18.6258 C.3     1  UNL1        0.0686
     10 C           5.8560   -3.1576   20.0987 C.3     1  UNL1        0.0188
     11 C           6.7452   -3.1176   21.3060 C.3     1  UNL1        0.0213
     12 H           3.9734   -2.3938   17.7488 H       1  UNL1        0.1232
     13 C           7.6126   -6.1127   29.4128 C.3     1  UNL1        0.1321
     14 N           7.9462   -5.5821   28.0500 N.ar    1  UNL1       -0.3057
     15 C           9.2001   -4.8516   27.6709 C.ar    1  UNL1        0.1787
     16 N           9.1132   -4.5070   26.2136 N.ar    1  UNL1       -0.2192
     17 C           7.8056   -5.0245   25.6921 C.ar    1  UNL1        0.1535
     18 C           7.0843   -5.6891   26.8270 C.ar    1  UNL1        0.1012
     19 C           6.0947   -2.6882   24.9081 C.3     1  UNL1        0.1205
     20 C           5.7272   -1.3032   24.4646 C.ar    1  UNL1        0.0007
     21 C           6.7940   -0.2628   24.2930 C.ar    1  UNL1       -0.0024
     22 C           6.4265    1.1223   23.8495 C.ar    1  UNL1        0.0028
     23 C           4.9921    1.4668   23.5777 C.ar    1  UNL1        0.0369
     24 C           3.9253    0.4264   23.7493 C.ar    1  UNL1        0.1381
     25 C           4.2929   -0.9586   24.1928 C.ar    1  UNL1        0.0343
     26 O           2.4909    0.7709   23.4775 O.3     1  UNL1       -0.4792
     27 C           1.8589    0.3773   22.1754 C.3     1  UNL1        0.1659
     28 C           2.4048   -0.6192   21.1960 C.3     1  UNL1        0.0435
     29 C           1.4533   -0.7014   20.0393 C.3     1  UNL1        0.0038
     30 C           0.3194    0.2442   20.3038 C.3     1  UNL1        0.0038
     31 C           0.5700    0.9108   21.6240 C.3     1  UNL1        0.0435
@<TRIPOS>BOND
     1    13    14    1
     2    14    15   ar
     3    15    16   ar
     4    16    17   ar
     5    17     1    1
     6     1     2    2
     7     1     3   am
     8     3    19    1
     9    19    20    1
    10    20    21   ar
    11    21    22   ar
    12    22    23   ar
    13    23    24   ar
    14    24    26    1
    15    26    27    1
    16    27    28    1
    17    28    29    1
    18    29    30    1
    19    30    31    1
    20    24    25   ar
    21     4     3    1
    22     4     5    1
    23     6     5    1
    24     6     7    1
    25     7     8    1
    26     8     9    1
    27    10     9    1
    28    10    11    1
    29    17    18   ar
    30    18    14   ar
    31    25    20   ar
    32    11     4    1
    33    31    27    1
    34    10     6    1
    35     8    12    1
@<TRIPOS>MOLECULE
*****
 31 35 0 0 0
SMALL
GASTEIGER

@<TRIPOS>ATOM
      1 C          -0.7966    3.0871   21.8155 C.2     1  UNL1        0.2685
      2 O          -0.6323    4.0209   22.9778 O.2     1  UNL1       -0.2682
      3 N           0.0932    1.8865   21.6863 N.am    1  UNL1       -0.2723
      4 C           1.1473    1.6196   22.7195 C.3     1  UNL1        0.0761
      5 C           2.5826    2.0490   22.6461 C.3     1  UNL1        0.0213
      6 C           3.2736    1.5712   23.8887 C.3     1  UNL1        0.0188
      7 C           4.5878    1.5413   24.6113 C.3     1  UNL1        0.0686
      8 N           4.3916    0.7981   25.8994 N.3     1  UNL1       -0.2975
      9 C           2.9563    0.3687   25.9729 C.3     1  UNL1        0.0686
     10 C           2.2653    0.8465   24.7302 C.3     1  UNL1        0.0188
     11 C           0.9512    0.8763   24.0077 C.3     1  UNL1        0.0213
     12 H           4.6115    1.4073   26.6874 H       1  UNL1        0.1232
     13 C          -3.2062    4.6752   17.3937 C.3     1  UNL1        0.1321
     14 N          -2.9584    4.0840   18.7498 N.ar    1  UNL1       -0.3057
     15 C          -3.9875    3.4458   19.6348 C.ar    1  UNL1        0.1787
     16 N          -3.3030    2.9946   20.8910 N.ar    1  UNL1       -0.2192
     17 C          -1.8508    3.3541   20.7823 C.ar    1  UNL1        0.1535
     18 C          -1.6378    4.0274   19.4589 C.ar    1  UNL1        0.1012
     19 C          -0.0712    0.9527   20.5239 C.3     1  UNL1        0.1205
     20 C           1.1374    0.3718   19.8518 C.ar    1  UNL1        0.0007
     21 C           1.7449    1.0670   18.6696 C.ar    1  UNL1       -0.0024
     22 C           2.9536    0.4861   17.9975 C.ar    1  UNL1        0.0028
     23 C           3.5547   -0.7899   18.5077 C.ar    1  UNL1        0.0369
     24 C           2.9473   -1.4851   19.6899 C.ar    1  UNL1        0.1381
     25 C           1.7386   -0.9042   20.3620 C.ar    1  UNL1        0.0343
     26 O           3.5484   -2.7612   20.2001 O.3     1  UNL1       -0.4792
     27 C           4.1584   -2.8077   21.5697 C.3     1  UNL1        0.1659
     28 C           3.9105   -1.8290   22.6791 C.3     1  UNL1        0.0435
     29 C           4.7223   -2.2575   23.8654 C.3     1  UNL1        0.0038
     30 C           5.4719   -3.5011   23.4892 C.3     1  UNL1        0.0038
     31 C           5.1235   -3.8411   22.0704 C.3     1  UNL1        0.0435
@<TRIPOS>BOND
     1    13    14    1
     2    14    15   ar
     3    15    16   ar
     4    16    17   ar
     5    17     1    1
     6     1     2    2
     7     1     3   am
     8     3    19    1
     9    19    20    1
    10    20    21   ar
    11    21    22   ar
    12    22    23   ar
    13    23    24   ar
    14    24    26    1
    15    26    27    1
    16    27    28    1
    17    28    29    1
    18    29    30    1
    19    30    31    1
    20    24    25   ar
    21     4     3    1
    22     4     5    1
    23     6     5    1
    24     6     7    1
    25     7     8    1
    26     8     9    1
    27    10     9    1
    28    10    11    1
    29    17    18   ar
    30    18    14   ar
    31    25    20   ar
    32    11     4    1
    33    31    27    1
    34    10     6    1
    35     8    12    1
@<TRIPOS>MOLECULE
*****
 31 35 0 0 0
SMALL
GASTEIGER

@<TRIPOS>ATOM
      1 C           0.7270    1.5026   20.4529 C.2     1  UNL1        0.2685
      2 O          -0.1472    0.5375   21.1974 O.2     1  UNL1       -0.2682
      3 N           2.2103    1.4967   20.6759 N.am    1  UNL1       -0.2723
      4 C           2.8194    0.5257   21.6434 C.3     1  UNL1        0.0761
      5 C           3.1772   -0.9017   21.3526 C.3     1  UNL1        0.0213
      6 C           3.7566   -1.4979   22.6011 C.3     1  UNL1        0.0188
      7 C           4.3358   -2.7486   23.1930 C.3     1  UNL1        0.0686
      8 N           4.6940   -2.4627   24.6212 N.3     1  UNL1       -0.2975
      9 C           4.3362   -1.0353   24.9121 C.3     1  UNL1        0.0686
     10 C           3.7568   -0.4390   23.6636 C.3     1  UNL1        0.0188
     11 C           3.1776    0.8116   23.0717 C.3     1  UNL1        0.0213
     12 H           5.6942   -2.6044   24.7623 H       1  UNL1        0.1232
     13 C          -1.9269    5.6093   18.4597 C.3     1  UNL1        0.1321
     14 N          -1.1020    4.3612   18.5692 N.ar    1  UNL1       -0.3057
     15 C          -0.5372    3.5744   17.4239 C.ar    1  UNL1        0.1787
     16 N           0.2167    2.4078   17.9901 N.ar    1  UNL1       -0.2192
     17 C           0.1178    2.4736   19.4853 C.ar    1  UNL1        0.1535
     18 C          -0.6972    3.6809   19.8433 C.ar    1  UNL1        0.1012
     19 C           3.0845    2.4618   19.9313 C.3     1  UNL1        0.1205
     20 C           4.0490    1.9574   18.8992 C.ar    1  UNL1        0.0007
     21 C           4.9927    2.9093   18.2258 C.ar    1  UNL1       -0.0024
     22 C           5.9573    2.4049   17.1936 C.ar    1  UNL1        0.0028
     23 C           5.9781    0.9485   16.8350 C.ar    1  UNL1        0.0369
     24 C           5.0345   -0.0033   17.5083 C.ar    1  UNL1        0.1381
     25 C           4.0699    0.5011   18.5404 C.ar    1  UNL1        0.0343
     26 O           5.0553   -1.4597   17.1496 O.3     1  UNL1       -0.4792
     27 C           5.0988   -2.4979   18.2314 C.3     1  UNL1        0.1659
     28 C           6.2843   -2.8287   19.0888 C.3     1  UNL1        0.0435
     29 C           5.8827   -3.9229   20.0330 C.3     1  UNL1        0.0038
     30 C           4.4489   -4.2683   19.7591 C.3     1  UNL1        0.0038
     31 C           3.9645   -3.3876   18.6457 C.3     1  UNL1        0.0435
@<TRIPOS>BOND
     1    13    14    1
     2    14    15   ar
     3    15    16   ar
     4    16    17   ar
     5    17     1    1
     6     1     2    2
     7     1     3   am
     8     3    19    1
     9    19    20    1
    10    20    21   ar
    11    21    22   ar
    12    22    23   ar
    13    23    24   ar
    14    24    26    1
    15    26    27    1
    16    27    28    1
    17    28    29    1
    18    29    30    1
    19    30    31    1
    20    24    25   ar
    21     4     3    1
    22     4     5    1
    23     6     5    1
    24     6     7    1
    25     7     8    1
    26     8     9    1
    27    10     9    1
    28    10    11    1
    29    17    18   ar
    30    18    14   ar
    31    25    20   ar
    32    11     4    1
    33    31    27    1
    34    10     6    1
    35     8    12    1
@<TRIPOS>MOLECULE
*****
 31 35 0 0 0
SMALL
GASTEIGER

@<TRIPOS>ATOM
      1 C          -9.3229  -17.5482   21.6957 C.2     1  UNL1        0.2685
      2 O          -9.8379  -16.1422   21.7845 O.2     1  UNL1       -0.2682
      3 N          -8.4117  -18.0818   22.7611 N.am    1  UNL1       -0.2723
      4 C          -8.0155  -17.2095   23.9151 C.3     1  UNL1        0.0761
      5 C          -8.8389  -16.9390   25.1394 C.3     1  UNL1        0.0213
      6 C          -8.0586  -16.0167   26.0285 C.3     1  UNL1        0.0188
      7 C          -8.0852  -15.2796   27.3346 C.3     1  UNL1        0.0686
      8 N          -6.7960  -14.5244   27.4670 N.3     1  UNL1       -0.2975
      9 C          -5.9725  -14.7948   26.2427 C.3     1  UNL1        0.0686
     10 C          -6.7528  -15.7171   25.3537 C.3     1  UNL1        0.0188
     11 C          -6.7262  -16.4542   24.0475 C.3     1  UNL1        0.0213
     12 H          -6.2945  -14.8387   28.2978 H       1  UNL1        0.1232
     13 C          -9.0861  -20.8770   17.6038 C.3     1  UNL1        0.1321
     14 N          -9.6104  -19.9507   18.6608 N.ar    1  UNL1       -0.3057
     15 C         -11.0474  -19.5754   18.8705 C.ar    1  UNL1        0.1787
     16 N         -11.1146  -18.6298   20.0329 N.ar    1  UNL1       -0.2192
     17 C          -9.7192  -18.4206   20.5416 C.ar    1  UNL1        0.1535
     18 C          -8.7894  -19.2369   19.6936 C.ar    1  UNL1        0.1012
     19 C          -7.8967  -19.4879   22.6723 C.3     1  UNL1        0.1205
     20 C          -6.5905  -19.7664   21.9894 C.ar    1  UNL1        0.0007
     21 C          -6.5495  -20.6586   20.7842 C.ar    1  UNL1       -0.0024
     22 C          -5.2433  -20.9371   20.1013 C.ar    1  UNL1        0.0028
     23 C          -3.9782  -20.3234   20.6237 C.ar    1  UNL1        0.0369
     24 C          -4.0192  -19.4313   21.8288 C.ar    1  UNL1        0.1381
     25 C          -5.3254  -19.1528   22.5117 C.ar    1  UNL1        0.0343
     26 O          -2.7540  -18.8177   22.3512 O.3     1  UNL1       -0.4792
     27 C          -1.8134  -18.1237   21.4112 C.3     1  UNL1        0.1659
     28 C          -0.8602  -18.7916   20.4648 C.3     1  UNL1        0.0435
     29 C          -0.1186  -17.7206   19.7213 C.3     1  UNL1        0.0038
     30 C          -0.6133  -16.3909   20.2080 C.3     1  UNL1        0.0038
     31 C          -1.6607  -16.6399   21.2524 C.3     1  UNL1        0.0435
@<TRIPOS>BOND
     1    13    14    1
     2    14    15   ar
     3    15    16   ar
     4    16    17   ar
     5    17     1    1
     6     1     2    2
     7     1     3   am
     8     3    19    1
     9    19    20    1
    10    20    21   ar
    11    21    22   ar
    12    22    23   ar
    13    23    24   ar
    14    24    26    1
    15    26    27    1
    16    27    28    1
    17    28    29    1
    18    29    30    1
    19    30    31    1
    20    24    25   ar
    21     4     3    1
    22     4     5    1
    23     6     5    1
    24     6     7    1
    25     7     8    1
    26     8     9    1
    27    10     9    1
    28    10    11    1
    29    17    18   ar
    30    18    14   ar
    31    25    20   ar
    32    11     4    1
    33    31    27    1
    34    10     6    1
    35     8    12    1
@<TRIPOS>MOLECULE
*****
 31 35 0 0 0
SMALL
GASTEIGER

@<TRIPOS>ATOM
      1 C           7.4089   -3.8764   22.0159 C.2     1  UNL1        0.2685
      2 O           8.4814   -3.6842   20.9849 O.2     1  UNL1       -0.2682
      3 N           6.0397   -3.3075   21.7887 N.am    1  UNL1       -0.2723
      4 C           5.7430   -2.5464   20.5308 C.3     1  UNL1        0.0761
      5 C           4.6726   -2.8757   19.5327 C.3     1  UNL1        0.0213
      6 C           4.7326   -1.8552   18.4350 C.3     1  UNL1        0.0188
      7 C           4.1082   -1.4280   17.1398 C.3     1  UNL1        0.0686
      8 N           4.8296   -0.2039   16.6590 N.3     1  UNL1       -0.2975
      9 C           5.8999    0.1254   17.6570 C.3     1  UNL1        0.0686
     10 C           5.8400   -0.8952   18.7547 C.3     1  UNL1        0.0188
     11 C           6.4644   -1.3223   20.0499 C.3     1  UNL1        0.0213
     12 H           4.1760    0.5754   16.5825 H       1  UNL1        0.1232
     13 C           8.5387   -5.0192   27.0456 C.3     1  UNL1        0.1321
     14 N           8.2250   -5.1628   25.5858 N.ar    1  UNL1       -0.3057
     15 C           8.1000   -6.4546   24.8338 C.ar    1  UNL1        0.1787
     16 N           7.7790   -6.1300   23.4049 N.ar    1  UNL1       -0.2192
     17 C           7.7057   -4.6376   23.2739 C.ar    1  UNL1        0.1535
     18 C           7.9814   -4.0398   24.6217 C.ar    1  UNL1        0.1012
     19 C           4.9672   -3.4998   22.8198 C.3     1  UNL1        0.1205
     20 C           4.3632   -2.3097   23.5045 C.ar    1  UNL1        0.0007
     21 C           4.7453   -1.9838   24.9179 C.ar    1  UNL1       -0.0024
     22 C           4.1413   -0.7936   25.6027 C.ar    1  UNL1        0.0028
     23 C           3.1552    0.0704   24.8739 C.ar    1  UNL1        0.0369
     24 C           2.7732   -0.2556   23.4606 C.ar    1  UNL1        0.1381
     25 C           3.3772   -1.4456   22.7758 C.ar    1  UNL1        0.0343
     26 O           1.7871    0.6086   22.7318 O.3     1  UNL1       -0.4792
     27 C           1.8175    0.6818   21.2339 C.3     1  UNL1        0.1659
     28 C           2.8030    1.4553   20.4088 C.3     1  UNL1        0.0435
     29 C           2.4623    1.2460   18.9631 C.3     1  UNL1        0.0038
     30 C           1.2664    0.3432   18.8946 C.3     1  UNL1        0.0038
     31 C           0.8679   -0.0055   20.2981 C.3     1  UNL1        0.0435
@<TRIPOS>BOND
     1    13    14    1
     2    14    15   ar
     3    15    16   ar
     4    16    17   ar
     5    17     1    1
     6     1     2    2
     7     1     3   am
     8     3    19    1
     9    19    20    1
    10    20    21   ar
    11    21    22   ar
    12    22    23   ar
    13    23    24   ar
    14    24    26    1
    15    26    27    1
    16    27    28    1
    17    28    29    1
    18    29    30    1
    19    30    31    1
    20    24    25   ar
    21     4     3    1
    22     4     5    1
    23     6     5    1
    24     6     7    1
    25     7     8    1
    26     8     9    1
    27    10     9    1
    28    10    11    1
    29    17    18   ar
    30    18    14   ar
    31    25    20   ar
    32    11     4    1
    33    31    27    1
    34    10     6    1
    35     8    12    1
@<TRIPOS>MOLECULE
*****
 31 35 0 0 0
SMALL
GASTEIGER

@<TRIPOS>ATOM
      1 C           4.1911   -1.3611   24.7757 C.2     1  UNL1        0.2685
      2 O           2.9286   -1.0541   24.0260 O.2     1  UNL1       -0.2682
      3 N           5.3090   -2.0929   24.0940 N.am    1  UNL1       -0.2723
      4 C           5.1646   -2.5177   22.6628 C.3     1  UNL1        0.0761
      5 C           4.5580   -3.8023   22.1812 C.3     1  UNL1        0.0213
      6 C           4.6199   -3.8110   20.6825 C.3     1  UNL1        0.0188
      7 C           4.2833   -4.6103   19.4587 C.3     1  UNL1        0.0686
      8 N           4.7200   -3.8250   18.2576 N.3     1  UNL1       -0.2975
      9 C           5.3266   -2.5404   18.7391 C.3     1  UNL1        0.0686
     10 C           5.2647   -2.5317   20.2378 C.3     1  UNL1        0.0188
     11 C           5.6014   -1.7324   21.4616 C.3     1  UNL1        0.0213
     12 H           3.9157   -3.6264   17.6627 H       1  UNL1        0.1232
     13 C           5.5789    1.3356   29.0980 C.3     1  UNL1        0.1321
     14 N           4.9733    0.3032   28.1938 N.ar    1  UNL1       -0.3057
     15 C           4.1420   -0.8683   28.6254 C.ar    1  UNL1        0.1787
     16 N           3.7478   -1.6343   27.3975 N.ar    1  UNL1       -0.2192
     17 C           4.3354   -0.9363   26.2071 C.ar    1  UNL1        0.1535
     18 C           5.0929    0.2612   26.6991 C.ar    1  UNL1        0.1012
     19 C           6.5714   -2.3999   24.8438 C.3     1  UNL1        0.1205
     20 C           6.7666   -3.7528   25.4617 C.ar    1  UNL1        0.0007
     21 C           7.2885   -4.8881   24.6318 C.ar    1  UNL1       -0.0024
     22 C           7.4836   -6.2410   25.2497 C.ar    1  UNL1        0.0028
     23 C           7.1568   -6.4584   26.6975 C.ar    1  UNL1        0.0369
     24 C           6.6349   -5.3231   27.5272 C.ar    1  UNL1        0.1381
     25 C           6.4398   -3.9703   26.9094 C.ar    1  UNL1        0.0343
     26 O           6.3080   -5.5406   28.9750 O.3     1  UNL1       -0.4792
     27 C           7.0770   -4.8096   30.0354 C.3     1  UNL1        0.1659
     28 C           8.4247   -5.1940   30.5704 C.3     1  UNL1        0.0435
     29 C           8.8139   -4.1880   31.6126 C.3     1  UNL1        0.0038
     30 C           7.7068   -3.1818   31.7218 C.3     1  UNL1        0.0038
     31 C           6.6334   -3.5660   30.7470 C.3     1  UNL1        0.0435
@<TRIPOS>BOND
     1    13    14    1
     2    14    15   ar
     3    15    16   ar
     4    16    17   ar
     5    17     1    1
     6     1     2    2
     7     1     3   am
     8     3    19    1
     9    19    20    1
    10    20    21   ar
    11    21    22   ar
    12    22    23   ar
    13    23    24   ar
    14    24    26    1
    15    26    27    1
    16    27    28    1
    17    28    29    1
    18    29    30    1
    19    30    31    1
    20    24    25   ar
    21     4     3    1
    22     4     5    1
    23     6     5    1
    24     6     7    1
    25     7     8    1
    26     8     9    1
    27    10     9    1
    28    10    11    1
    29    17    18   ar
    30    18    14   ar
    31    25    20   ar
    32    11     4    1
    33    31    27    1
    34    10     6    1
    35     8    12    1
