@<TRIPOS>MOLECULE
*****
 34 37 0 0 0
SMALL
GASTEIGER

@<TRIPOS>ATOM
      1 C          -8.9466  -18.4206   20.9377 C.ar    1  UNL1        0.0951
      2 C          -9.7148  -18.9685   19.7716 C.ar    1  UNL1        0.1454
      3 F         -11.0991  -18.4676   19.4835 F       1  UNL1       -0.2040
      4 C          -9.0988  -20.0172   18.8938 C.ar    1  UNL1        0.0312
      5 C          -7.7146  -20.5180   19.1820 C.ar    1  UNL1        0.0204
      6 C          -6.9463  -19.9702   20.3480 C.ar    1  UNL1        0.0924
      7 C          -7.5624  -18.9214   21.2258 C.ar    1  UNL1        0.1598
      8 F          -6.7942  -18.3735   22.3919 F       1  UNL1       -0.2026
      9 O          -9.9654  -16.0491   21.2342 O.2     1  UNL1       -0.2864
     10 C          -9.5626  -17.3718   21.8156 C.2     1  UNL1        0.2015
     11 C          -9.7759  -17.6459   23.2749 C.ar    1  UNL1        0.0612
     12 C         -10.8345  -18.5331   23.8599 C.ar    1  UNL1        0.1037
     13 N         -10.6807  -18.5163   25.3519 N.ar    1  UNL1       -0.2269
     14 C          -9.5272  -17.6188   25.6890 C.ar    1  UNL1        0.1407
     15 N          -8.9137  -17.2219   26.9990 N.ar    1  UNL1       -0.3367
     16 C          -7.7410  -16.2870   27.0253 C.ar    1  UNL1        0.0850
     17 C          -7.1818  -15.7490   25.7416 C.ar    1  UNL1        0.0748
     18 CL         -6.0091  -14.8140   25.7680 Cl      1  UNL1       -0.0807
     19 C          -7.7952  -16.1459   24.4316 C.ar    1  UNL1        0.0160
     20 C          -8.9679  -17.0808   24.4053 C.ar    1  UNL1        0.0394
     21 H          -9.2808  -17.5750   27.8415 H       1  UNL1        0.1674
     22 N          -5.5621  -20.4710   20.6362 N.pl3   1  UNL1       -0.2127
     23 H          -5.4052  -21.4333   20.7725 H       1  UNL1        0.1738
     24 S          -4.4169  -19.5056   20.7167 S.O2    1  UNL1        0.0759
     25 O          -4.7504  -18.9956   19.3461 O.2     1  UNL1       -0.1499
     26 O          -4.0833  -20.0157   22.0873 O.2     1  UNL1       -0.1499
     27 C          -3.2716  -18.5403   20.7974 C.ar    1  UNL1        0.1547
     28 C          -2.1524  -18.6195   19.8018 C.ar    1  UNL1        0.0521
     29 C          -1.0072  -17.6542   19.8823 C.ar    1  UNL1        0.1416
     30 F           0.1120  -17.7335   18.8867 F       1  UNL1       -0.2041
     31 C          -0.9810  -16.6097   20.9585 C.ar    1  UNL1        0.0320
     32 C          -2.1002  -16.5305   21.9541 C.ar    1  UNL1        0.0333
     33 C          -3.2455  -17.4958   21.8736 C.ar    1  UNL1        0.1590
     34 F          -4.3646  -17.4165   22.8692 F       1  UNL1       -0.2027
@<TRIPOS>BOND
     1     9    10    2
     2    10     1    1
     3     1     2   ar
     4     2     3    1
     5     2     4   ar
     6     4     5   ar
     7     5     6   ar
     8     6    22    1
     9    22    24    1
    10    24    25    2
    11    24    26    2
    12    24    27    1
    13    27    28   ar
    14    28    29   ar
    15    29    30    1
    16    29    31   ar
    17    31    32   ar
    18    32    33   ar
    19    33    34    1
    20     6     7   ar
    21     7     8    1
    22    10    11    1
    23    11    12   ar
    24    12    13   ar
    25    13    14   ar
    26    14    15   ar
    27    15    16   ar
    28    16    17   ar
    29    17    18    1
    30    17    19   ar
    31    19    20   ar
    32     7     1   ar
    33    20    11   ar
    34    33    27   ar
    35    20    14    1
    36    22    23    1
    37    15    21    1
@<TRIPOS>MOLECULE
*****
 34 37 0 0 0
SMALL
GASTEIGER

@<TRIPOS>ATOM
      1 C         -10.3197  -19.0913   22.4310 C.ar    1  UNL1        0.0951
      2 C         -11.4147  -18.6096   21.5260 C.ar    1  UNL1        0.1454
      3 F         -12.7069  -18.1182   22.1079 F       1  UNL1       -0.2040
      4 C         -11.2173  -18.6193   20.0391 C.ar    1  UNL1        0.0312
      5 C          -9.9251  -19.1107   19.4572 C.ar    1  UNL1        0.0204
      6 C          -8.8301  -19.5924   20.3622 C.ar    1  UNL1        0.0924
      7 C          -9.0275  -19.5827   21.8491 C.ar    1  UNL1        0.1598
      8 F          -7.9325  -20.0643   22.7541 F       1  UNL1       -0.2026
      9 O         -11.4826  -20.0379   24.5526 O.2     1  UNL1       -0.2864
     10 C         -10.5170  -19.0816   23.9180 C.2     1  UNL1        0.2015
     11 C          -9.7486  -18.1155   24.7702 C.ar    1  UNL1        0.0612
     12 C          -9.6113  -18.1725   26.2628 C.ar    1  UNL1        0.1037
     13 N          -8.7604  -17.0150   26.6945 N.ar    1  UNL1       -0.2269
     14 C          -8.3719  -16.2427   25.4687 C.ar    1  UNL1        0.1407
     15 N          -7.5409  -15.0080   25.2818 N.ar    1  UNL1       -0.3367
     16 C          -7.3207  -14.4535   23.9056 C.ar    1  UNL1        0.0850
     17 C          -7.9314  -15.1336   22.7163 C.ar    1  UNL1        0.0748
     18 CL         -7.7111  -14.5790   21.3401 Cl      1  UNL1       -0.0807
     19 C          -8.7624  -16.3683   22.9032 C.ar    1  UNL1        0.0160
     20 C          -8.9826  -16.9229   24.2794 C.ar    1  UNL1        0.0394
     21 H          -7.1401  -14.5616   26.0624 H       1  UNL1        0.1674
     22 N          -7.5379  -20.0837   19.7802 N.pl3   1  UNL1       -0.2127
     23 H          -7.5450  -20.6588   18.9811 H       1  UNL1        0.1738
     24 S          -6.2348  -19.6990   20.4158 S.O2    1  UNL1        0.0759
     25 O          -6.5644  -18.2496   20.2140 O.2     1  UNL1       -0.1499
     26 O          -5.9053  -21.1483   20.6176 O.2     1  UNL1       -0.1499
     27 C          -4.9318  -19.3143   21.0513 C.ar    1  UNL1        0.1547
     28 C          -4.9162  -18.7115   22.4248 C.ar    1  UNL1        0.0521
     29 C          -3.6132  -18.3268   23.0604 C.ar    1  UNL1        0.1416
     30 F          -3.5978  -17.7240   24.4339 F       1  UNL1       -0.2041
     31 C          -2.3256  -18.5449   22.3226 C.ar    1  UNL1        0.0320
     32 C          -2.3411  -19.1477   20.9491 C.ar    1  UNL1        0.0333
     33 C          -3.6441  -19.5324   20.3135 C.ar    1  UNL1        0.1590
     34 F          -3.6595  -20.1352   18.9400 F       1  UNL1       -0.2027
@<TRIPOS>BOND
     1     9    10    2
     2    10     1    1
     3     1     2   ar
     4     2     3    1
     5     2     4   ar
     6     4     5   ar
     7     5     6   ar
     8     6    22    1
     9    22    24    1
    10    24    25    2
    11    24    26    2
    12    24    27    1
    13    27    28   ar
    14    28    29   ar
    15    29    30    1
    16    29    31   ar
    17    31    32   ar
    18    32    33   ar
    19    33    34    1
    20     6     7   ar
    21     7     8    1
    22    10    11    1
    23    11    12   ar
    24    12    13   ar
    25    13    14   ar
    26    14    15   ar
    27    15    16   ar
    28    16    17   ar
    29    17    18    1
    30    17    19   ar
    31    19    20   ar
    32     7     1   ar
    33    20    11   ar
    34    33    27   ar
    35    20    14    1
    36    22    23    1
    37    15    21    1
@<TRIPOS>MOLECULE
*****
 34 37 0 0 0
SMALL
GASTEIGER

@<TRIPOS>ATOM
      1 C          -9.6105  -17.7993   21.3857 C.ar    1  UNL1        0.0951
      2 C         -10.6877  -17.9737   20.3565 C.ar    1  UNL1        0.1454
      3 F         -11.9329  -17.1403   20.4254 F       1  UNL1       -0.2040
      4 C         -10.5195  -18.9815   19.2583 C.ar    1  UNL1        0.0312
      5 C          -9.2743  -19.8150   19.1894 C.ar    1  UNL1        0.0204
      6 C          -8.1971  -19.6406   20.2186 C.ar    1  UNL1        0.0924
      7 C          -8.3653  -18.6328   21.3168 C.ar    1  UNL1        0.1598
      8 F          -7.2882  -18.4583   22.3461 F       1  UNL1       -0.2026
      9 O         -11.1324  -16.5567   23.0855 O.2     1  UNL1       -0.2864
     10 C          -9.7786  -16.7914   22.4840 C.2     1  UNL1        0.2015
     11 C          -8.5929  -16.0185   22.9805 C.ar    1  UNL1        0.0612
     12 C          -7.6243  -15.2486   22.1324 C.ar    1  UNL1        0.1037
     13 N          -6.6004  -14.6340   23.0401 N.ar    1  UNL1       -0.2269
     14 C          -6.9362  -15.0240   24.4491 C.ar    1  UNL1        0.1407
     15 N          -6.2797  -14.7105   25.7608 N.ar    1  UNL1       -0.3367
     16 C          -6.8547  -15.2527   27.0357 C.ar    1  UNL1        0.0850
     17 C          -8.0861  -16.1083   26.9988 C.ar    1  UNL1        0.0748
     18 CL         -8.6611  -16.6505   28.2738 Cl      1  UNL1       -0.0807
     19 C          -8.7426  -16.4218   25.6871 C.ar    1  UNL1        0.0160
     20 C          -8.1676  -15.8796   24.4122 C.ar    1  UNL1        0.0394
     21 H          -5.4714  -14.1489   25.7850 H       1  UNL1        0.1674
     22 N          -6.9519  -20.4740   20.1497 N.pl3   1  UNL1       -0.2127
     23 H          -7.0174  -21.4461   20.0085 H       1  UNL1        0.1738
     24 S          -5.6069  -19.8263   20.2958 S.O2    1  UNL1        0.0759
     25 O          -6.1401  -18.5760   19.6615 O.2     1  UNL1       -0.1499
     26 O          -5.0737  -21.0766   20.9301 O.2     1  UNL1       -0.1499
     27 C          -4.2618  -19.1786   20.4420 C.ar    1  UNL1        0.1547
     28 C          -3.4648  -18.8216   19.2224 C.ar    1  UNL1        0.0521
     29 C          -2.1197  -18.1739   19.3684 C.ar    1  UNL1        0.1416
     30 F          -1.3228  -17.8170   18.1488 F       1  UNL1       -0.2041
     31 C          -1.5716  -17.8833   20.7341 C.ar    1  UNL1        0.0320
     32 C          -2.3687  -18.2403   21.9537 C.ar    1  UNL1        0.0333
     33 C          -3.7137  -18.8880   21.8076 C.ar    1  UNL1        0.1590
     34 F          -4.5107  -19.2450   23.0272 F       1  UNL1       -0.2027
@<TRIPOS>BOND
     1     9    10    2
     2    10     1    1
     3     1     2   ar
     4     2     3    1
     5     2     4   ar
     6     4     5   ar
     7     5     6   ar
     8     6    22    1
     9    22    24    1
    10    24    25    2
    11    24    26    2
    12    24    27    1
    13    27    28   ar
    14    28    29   ar
    15    29    30    1
    16    29    31   ar
    17    31    32   ar
    18    32    33   ar
    19    33    34    1
    20     6     7   ar
    21     7     8    1
    22    10    11    1
    23    11    12   ar
    24    12    13   ar
    25    13    14   ar
    26    14    15   ar
    27    15    16   ar
    28    16    17   ar
    29    17    18    1
    30    17    19   ar
    31    19    20   ar
    32     7     1   ar
    33    20    11   ar
    34    33    27   ar
    35    20    14    1
    36    22    23    1
    37    15    21    1
@<TRIPOS>MOLECULE
*****
 34 37 0 0 0
SMALL
GASTEIGER

@<TRIPOS>ATOM
      1 C          -7.0467  -19.6523   20.4457 C.ar    1  UNL1        0.0951
      2 C          -8.0707  -20.2694   19.5399 C.ar    1  UNL1        0.1454
      3 F          -7.7469  -21.5264   18.7882 F       1  UNL1       -0.2040
      4 C          -9.4185  -19.6294   19.3858 C.ar    1  UNL1        0.0312
      5 C          -9.7423  -18.3724   20.1376 C.ar    1  UNL1        0.0204
      6 C          -8.7183  -17.7553   21.0434 C.ar    1  UNL1        0.0924
      7 C          -7.3704  -18.3953   21.1974 C.ar    1  UNL1        0.1598
      8 F          -6.3463  -17.7782   22.1032 F       1  UNL1       -0.2026
      9 O          -5.4617  -21.6772   20.0750 O.2     1  UNL1       -0.2864
     10 C          -5.6987  -20.2922   20.5998 C.2     1  UNL1        0.2015
     11 C          -4.5879  -19.5471   21.2787 C.ar    1  UNL1        0.0612
     12 C          -4.3971  -19.4060   22.7598 C.ar    1  UNL1        0.1037
     13 N          -3.1642  -18.5839   22.9920 N.ar    1  UNL1       -0.2269
     14 C          -2.5929  -18.2169   21.6545 C.ar    1  UNL1        0.1407
     15 N          -1.3852  -17.4176   21.2640 N.ar    1  UNL1       -0.3367
     16 C          -1.0574  -17.2136   19.8146 C.ar    1  UNL1        0.0850
     17 C          -1.9374  -17.8089   18.7557 C.ar    1  UNL1        0.0748
     18 CL         -1.6095  -17.6048   17.3062 Cl      1  UNL1       -0.0807
     19 C          -3.1451  -18.6082   19.1461 C.ar    1  UNL1        0.0160
     20 C          -3.4729  -18.8122   20.5956 C.ar    1  UNL1        0.0394
     21 H          -0.8077  -17.0269   21.9591 H       1  UNL1        0.1674
     22 N          -9.0421  -16.4983   21.7951 N.pl3   1  UNL1       -0.2127
     23 H          -9.6561  -15.8354   21.4043 H       1  UNL1        0.1738
     24 S          -8.4303  -16.2513   23.1422 S.O2    1  UNL1        0.0759
     25 O          -7.6855  -15.0732   22.5880 O.2     1  UNL1       -0.1499
     26 O          -9.1750  -17.4295   23.6964 O.2     1  UNL1       -0.1499
     27 C          -7.8185  -16.0045   24.4893 C.ar    1  UNL1        0.1547
     28 C          -8.6434  -16.1756   25.7304 C.ar    1  UNL1        0.0521
     29 C          -8.0317  -15.9287   27.0776 C.ar    1  UNL1        0.1416
     30 F          -8.8567  -16.0998   28.3186 F       1  UNL1       -0.2041
     31 C          -6.5951  -15.5107   27.1837 C.ar    1  UNL1        0.0320
     32 C          -5.7702  -15.3396   25.9426 C.ar    1  UNL1        0.0333
     33 C          -6.3818  -15.5865   24.5954 C.ar    1  UNL1        0.1590
     34 F          -5.5568  -15.4154   23.3544 F       1  UNL1       -0.2027
@<TRIPOS>BOND
     1     9    10    2
     2    10     1    1
     3     1     2   ar
     4     2     3    1
     5     2     4   ar
     6     4     5   ar
     7     5     6   ar
     8     6    22    1
     9    22    24    1
    10    24    25    2
    11    24    26    2
    12    24    27    1
    13    27    28   ar
    14    28    29   ar
    15    29    30    1
    16    29    31   ar
    17    31    32   ar
    18    32    33   ar
    19    33    34    1
    20     6     7   ar
    21     7     8    1
    22    10    11    1
    23    11    12   ar
    24    12    13   ar
    25    13    14   ar
    26    14    15   ar
    27    15    16   ar
    28    16    17   ar
    29    17    18    1
    30    17    19   ar
    31    19    20   ar
    32     7     1   ar
    33    20    11   ar
    34    33    27   ar
    35    20    14    1
    36    22    23    1
    37    15    21    1
@<TRIPOS>MOLECULE
*****
 34 37 0 0 0
SMALL
GASTEIGER

@<TRIPOS>ATOM
      1 C           6.5447   -3.7528   21.2901 C.ar    1  UNL1        0.0951
      2 C           8.0367   -3.6357   21.1890 C.ar    1  UNL1        0.1454
      3 F           8.7005   -3.6458   19.8439 F       1  UNL1       -0.2040
      4 C           8.8649   -3.5084   22.4331 C.ar    1  UNL1        0.0312
      5 C           8.2012   -3.4982   23.7782 C.ar    1  UNL1        0.0204
      6 C           6.7092   -3.6154   23.8793 C.ar    1  UNL1        0.0924
      7 C           5.8810   -3.7427   22.6352 C.ar    1  UNL1        0.1598
      8 F           4.3890   -3.8598   22.7362 F       1  UNL1       -0.2026
      9 O           5.0573   -5.1860   19.7142 O.2     1  UNL1       -0.2864
     10 C           5.7164   -3.8801   20.0459 C.2     1  UNL1        0.2015
     11 C           5.5473   -2.7015   19.1337 C.ar    1  UNL1        0.0612
     12 C           6.5276   -2.2425   18.0953 C.ar    1  UNL1        0.1037
     13 N           5.9542   -1.0323   17.4195 N.ar    1  UNL1       -0.2269
     14 C           4.6196   -0.7433   18.0403 C.ar    1  UNL1        0.1407
     15 N           3.6009    0.3259   17.7777 N.ar    1  UNL1       -0.3367
     16 C           2.3307    0.3634   18.5746 C.ar    1  UNL1        0.0850
     17 C           2.0791   -0.6683   19.6340 C.ar    1  UNL1        0.0748
     18 CL          0.8088   -0.6307   20.4309 Cl      1  UNL1       -0.0807
     19 C           3.0979   -1.7375   19.8966 C.ar    1  UNL1        0.0160
     20 C           4.3681   -1.7750   19.0997 C.ar    1  UNL1        0.0394
     21 H           3.7660    1.0030   17.0824 H       1  UNL1        0.1674
     22 N           6.0455   -3.6052   25.2244 N.pl3   1  UNL1       -0.2127
     23 H           5.1776   -3.1555   25.3417 H       1  UNL1        0.1738
     24 S           6.7041   -4.2803   26.3908 S.O2    1  UNL1        0.0759
     25 O           6.5443   -5.6085   25.7124 O.2     1  UNL1       -0.1499
     26 O           6.8640   -2.9521   27.0693 O.2     1  UNL1       -0.1499
     27 C           7.3628   -4.9552   27.5573 C.ar    1  UNL1        0.1547
     28 C           6.6055   -5.1483   28.8376 C.ar    1  UNL1        0.0521
     29 C           7.2641   -5.8232   30.0041 C.ar    1  UNL1        0.1416
     30 F           6.5068   -6.0162   31.2845 F       1  UNL1       -0.2041
     31 C           8.6800   -6.3052   29.8903 C.ar    1  UNL1        0.0320
     32 C           9.4372   -6.1121   28.6099 C.ar    1  UNL1        0.0333
     33 C           8.7787   -5.4372   27.4434 C.ar    1  UNL1        0.1590
     34 F           9.5360   -5.2442   26.1631 F       1  UNL1       -0.2027
@<TRIPOS>BOND
     1     9    10    2
     2    10     1    1
     3     1     2   ar
     4     2     3    1
     5     2     4   ar
     6     4     5   ar
     7     5     6   ar
     8     6    22    1
     9    22    24    1
    10    24    25    2
    11    24    26    2
    12    24    27    1
    13    27    28   ar
    14    28    29   ar
    15    29    30    1
    16    29    31   ar
    17    31    32   ar
    18    32    33   ar
    19    33    34    1
    20     6     7   ar
    21     7     8    1
    22    10    11    1
    23    11    12   ar
    24    12    13   ar
    25    13    14   ar
    26    14    15   ar
    27    15    16   ar
    28    16    17   ar
    29    17    18    1
    30    17    19   ar
    31    19    20   ar
    32     7     1   ar
    33    20    11   ar
    34    33    27   ar
    35    20    14    1
    36    22    23    1
    37    15    21    1
@<TRIPOS>MOLECULE
*****
 34 37 0 0 0
SMALL
GASTEIGER

@<TRIPOS>ATOM
      1 C          -8.9134  -19.1318   20.6210 C.ar    1  UNL1        0.0951
      2 C         -10.1506  -19.6749   19.9695 C.ar    1  UNL1        0.1454
      3 F         -10.0483  -20.4288   18.6767 F       1  UNL1       -0.2040
      4 C         -11.4901  -19.4640   20.6107 C.ar    1  UNL1        0.0312
      5 C         -11.5925  -18.7101   21.9034 C.ar    1  UNL1        0.0204
      6 C         -10.3553  -18.1671   22.5550 C.ar    1  UNL1        0.0924
      7 C          -9.0158  -18.3779   21.9137 C.ar    1  UNL1        0.1598
      8 F          -7.7785  -17.8349   22.5652 F       1  UNL1       -0.2026
      9 O          -7.4268  -19.2197   18.4921 O.2     1  UNL1       -0.2864
     10 C          -7.5738  -19.3427   19.9797 C.2     1  UNL1        0.2015
     11 C          -6.3813  -19.6766   20.8262 C.ar    1  UNL1        0.0612
     12 C          -6.4007  -20.4523   22.1099 C.ar    1  UNL1        0.1037
     13 N          -4.9915  -20.5484   22.6147 N.ar    1  UNL1       -0.2269
     14 C          -4.1011  -19.8321   21.6429 C.ar    1  UNL1        0.1407
     15 N          -2.6192  -19.6009   21.6218 N.ar    1  UNL1       -0.3367
     16 C          -1.9964  -18.8309   20.4953 C.ar    1  UNL1        0.0850
     17 C          -2.8554  -18.2920   19.3900 C.ar    1  UNL1        0.0748
     18 CL         -2.2324  -17.5220   18.2634 Cl      1  UNL1       -0.0807
     19 C          -4.3373  -18.5232   19.4111 C.ar    1  UNL1        0.0160
     20 C          -4.9601  -19.2933   20.5376 C.ar    1  UNL1        0.0394
     21 H          -2.0554  -19.9546   22.3472 H       1  UNL1        0.1674
     22 N         -10.4576  -17.4132   23.8477 N.pl3   1  UNL1       -0.2127
     23 H         -11.3321  -17.3061   24.2872 H       1  UNL1        0.1738
     24 S          -9.2277  -16.8224   24.4708 S.O2    1  UNL1        0.0759
     25 O          -9.4172  -15.5740   23.6612 O.2     1  UNL1       -0.1499
     26 O          -9.0382  -18.0709   25.2804 O.2     1  UNL1       -0.1499
     27 C          -7.9978  -16.2318   25.0939 C.ar    1  UNL1        0.1547
     28 C          -6.8483  -15.8077   24.2285 C.ar    1  UNL1        0.0521
     29 C          -5.6183  -15.2170   24.8516 C.ar    1  UNL1        0.1416
     30 F          -4.4689  -14.7929   23.9861 F       1  UNL1       -0.2041
     31 C          -5.5377  -15.0504   26.3401 C.ar    1  UNL1        0.0320
     32 C          -6.6872  -15.4745   27.2055 C.ar    1  UNL1        0.0333
     33 C          -7.9172  -16.0652   26.5825 C.ar    1  UNL1        0.1590
     34 F          -9.0666  -16.4893   27.4479 F       1  UNL1       -0.2027
@<TRIPOS>BOND
     1     9    10    2
     2    10     1    1
     3     1     2   ar
     4     2     3    1
     5     2     4   ar
     6     4     5   ar
     7     5     6   ar
     8     6    22    1
     9    22    24    1
    10    24    25    2
    11    24    26    2
    12    24    27    1
    13    27    28   ar
    14    28    29   ar
    15    29    30    1
    16    29    31   ar
    17    31    32   ar
    18    32    33   ar
    19    33    34    1
    20     6     7   ar
    21     7     8    1
    22    10    11    1
    23    11    12   ar
    24    12    13   ar
    25    13    14   ar
    26    14    15   ar
    27    15    16   ar
    28    16    17   ar
    29    17    18    1
    30    17    19   ar
    31    19    20   ar
    32     7     1   ar
    33    20    11   ar
    34    33    27   ar
    35    20    14    1
    36    22    23    1
    37    15    21    1
@<TRIPOS>MOLECULE
*****
 34 37 0 0 0
SMALL
GASTEIGER

@<TRIPOS>ATOM
      1 C           3.8665   -1.6028   19.1403 C.ar    1  UNL1        0.0951
      2 C           4.9805   -0.9565   18.3713 C.ar    1  UNL1        0.1454
      3 F           6.2342   -1.7259   18.0777 F       1  UNL1       -0.2040
      4 C           4.8406    0.4593   17.8960 C.ar    1  UNL1        0.0312
      5 C           3.5869    1.2287   18.1896 C.ar    1  UNL1        0.0204
      6 C           2.4730    0.5824   18.9586 C.ar    1  UNL1        0.0924
      7 C           2.6128   -0.8334   19.4339 C.ar    1  UNL1        0.1598
      8 F           1.4989   -1.4799   20.2030 F       1  UNL1       -0.2026
      9 O           3.0398   -4.0658   19.1475 O.2     1  UNL1       -0.2864
     10 C           4.0063   -3.0187   19.6157 C.2     1  UNL1        0.2015
     11 C           5.1126   -3.3873   20.5592 C.ar    1  UNL1        0.0612
     12 C           6.3334   -4.1886   20.2164 C.ar    1  UNL1        0.1037
     13 N           7.1676   -4.3158   21.4566 N.ar    1  UNL1       -0.2269
     14 C           6.4623   -3.5931   22.5658 C.ar    1  UNL1        0.1407
     15 N           6.8125   -3.3835   24.0092 N.ar    1  UNL1       -0.3367
     16 C           5.8926   -2.6000   24.8979 C.ar    1  UNL1        0.0850
     17 C           4.6226   -2.0262   24.3433 C.ar    1  UNL1        0.0748
     18 CL          3.7027   -1.2427   25.2322 Cl      1  UNL1       -0.0807
     19 C           4.2724   -2.2358   22.9000 C.ar    1  UNL1        0.0160
     20 C           5.1922   -3.0193   22.0112 C.ar    1  UNL1        0.0394
     21 H           7.6461   -3.7601   24.3732 H       1  UNL1        0.1674
     22 N           1.2193    1.3518   19.2522 N.pl3   1  UNL1       -0.2127
     23 H           0.6617    1.6852   18.5125 H       1  UNL1        0.1738
     24 S           0.8151    1.6132   20.6729 S.O2    1  UNL1        0.0759
     25 O          -0.4054    0.7623   20.4822 O.2     1  UNL1       -0.1499
     26 O           2.0356    2.4641   20.8636 O.2     1  UNL1       -0.1499
     27 C           0.4111    1.8746   22.0936 C.ar    1  UNL1        0.1547
     28 C          -0.5529    2.9801   22.4079 C.ar    1  UNL1        0.0521
     29 C          -0.9570    3.2416   23.8285 C.ar    1  UNL1        0.1416
     30 F          -1.9209    4.3471   24.1427 F       1  UNL1       -0.2041
     31 C          -0.3972    2.3976   24.9350 C.ar    1  UNL1        0.0320
     32 C           0.5667    1.2921   24.6207 C.ar    1  UNL1        0.0333
     33 C           0.9708    1.0306   23.2000 C.ar    1  UNL1        0.1590
     34 F           1.9347   -0.0750   22.8858 F       1  UNL1       -0.2027
@<TRIPOS>BOND
     1     9    10    2
     2    10     1    1
     3     1     2   ar
     4     2     3    1
     5     2     4   ar
     6     4     5   ar
     7     5     6   ar
     8     6    22    1
     9    22    24    1
    10    24    25    2
    11    24    26    2
    12    24    27    1
    13    27    28   ar
    14    28    29   ar
    15    29    30    1
    16    29    31   ar
    17    31    32   ar
    18    32    33   ar
    19    33    34    1
    20     6     7   ar
    21     7     8    1
    22    10    11    1
    23    11    12   ar
    24    12    13   ar
    25    13    14   ar
    26    14    15   ar
    27    15    16   ar
    28    16    17   ar
    29    17    18    1
    30    17    19   ar
    31    19    20   ar
    32     7     1   ar
    33    20    11   ar
    34    33    27   ar
    35    20    14    1
    36    22    23    1
    37    15    21    1
@<TRIPOS>MOLECULE
*****
 34 37 0 0 0
SMALL
GASTEIGER

@<TRIPOS>ATOM
      1 C           4.9862   -2.6576   19.7506 C.ar    1  UNL1        0.0951
      2 C           6.3777   -2.4467   19.2316 C.ar    1  UNL1        0.1454
      3 F           7.5060   -3.2907   19.7459 F       1  UNL1       -0.2040
      4 C           6.6408   -1.3918   18.1982 C.ar    1  UNL1        0.0312
      5 C           5.5125   -0.5478   17.6839 C.ar    1  UNL1        0.0204
      6 C           4.1210   -0.7586   18.2029 C.ar    1  UNL1        0.0924
      7 C           3.8579   -1.8136   19.2362 C.ar    1  UNL1        0.1598
      8 F           2.4665   -2.0245   19.7553 F       1  UNL1       -0.2026
      9 O           4.0072   -4.9742   20.4023 O.2     1  UNL1       -0.2864
     10 C           4.7230   -3.7126   20.7840 C.2     1  UNL1        0.2015
     11 C           5.1757   -3.5058   22.1991 C.ar    1  UNL1        0.0612
     12 C           6.2908   -4.2388   22.8841 C.ar    1  UNL1        0.1037
     13 N           6.3970   -3.7157   24.2859 N.ar    1  UNL1       -0.2269
     14 C           5.3476   -2.6593   24.4672 C.ar    1  UNL1        0.1407
     15 N           4.9818   -1.7989   25.6401 N.ar    1  UNL1       -0.3367
     16 C           3.8612   -0.8087   25.5233 C.ar    1  UNL1        0.0850
     17 C           3.1063   -0.6790   24.2335 C.ar    1  UNL1        0.0748
     18 CL          1.9857    0.3113   24.1167 Cl      1  UNL1       -0.0807
     19 C           3.4721   -1.5394   23.0606 C.ar    1  UNL1        0.0160
     20 C           4.5928   -2.5296   23.1775 C.ar    1  UNL1        0.0394
     21 H           5.4772   -1.8840   26.4866 H       1  UNL1        0.1674
     22 N           2.9927    0.0854   17.6885 N.pl3   1  UNL1       -0.2127
     23 H           2.7422    0.0456   16.7373 H       1  UNL1        0.1738
     24 S           2.2461    0.9900   18.6236 S.O2    1  UNL1        0.0759
     25 O           0.9467    0.4184   18.1390 O.2     1  UNL1       -0.1499
     26 O           3.5455    1.5616   19.1081 O.2     1  UNL1       -0.1499
     27 C           1.4996    1.8946   19.5586 C.ar    1  UNL1        0.1547
     28 C           1.3969    3.3612   19.2609 C.ar    1  UNL1        0.0521
     29 C           0.6504    4.2659   20.1959 C.ar    1  UNL1        0.1416
     30 F           0.5477    5.7324   19.8981 F       1  UNL1       -0.2041
     31 C           0.0065    3.7040   21.4286 C.ar    1  UNL1        0.0320
     32 C           0.1093    2.2374   21.7264 C.ar    1  UNL1        0.0333
     33 C           0.8558    1.3327   20.7914 C.ar    1  UNL1        0.1590
     34 F           0.9584   -0.1339   21.0892 F       1  UNL1       -0.2027
@<TRIPOS>BOND
     1     9    10    2
     2    10     1    1
     3     1     2   ar
     4     2     3    1
     5     2     4   ar
     6     4     5   ar
     7     5     6   ar
     8     6    22    1
     9    22    24    1
    10    24    25    2
    11    24    26    2
    12    24    27    1
    13    27    28   ar
    14    28    29   ar
    15    29    30    1
    16    29    31   ar
    17    31    32   ar
    18    32    33   ar
    19    33    34    1
    20     6     7   ar
    21     7     8    1
    22    10    11    1
    23    11    12   ar
    24    12    13   ar
    25    13    14   ar
    26    14    15   ar
    27    15    16   ar
    28    16    17   ar
    29    17    18    1
    30    17    19   ar
    31    19    20   ar
    32     7     1   ar
    33    20    11   ar
    34    33    27   ar
    35    20    14    1
    36    22    23    1
    37    15    21    1
@<TRIPOS>MOLECULE
*****
 34 37 0 0 0
SMALL
GASTEIGER

@<TRIPOS>ATOM
      1 C           5.0641   -3.2142   22.8474 C.ar    1  UNL1        0.0951
      2 C           4.2458   -2.1575   23.5283 C.ar    1  UNL1        0.1454
      3 F           3.0652   -1.5547   22.8262 F       1  UNL1       -0.2040
      4 C           4.6080   -1.7037   24.9113 C.ar    1  UNL1        0.0312
      5 C           5.7885   -2.3065   25.6134 C.ar    1  UNL1        0.0204
      6 C           6.6069   -3.3632   24.9325 C.ar    1  UNL1        0.0924
      7 C           6.2447   -3.8170   23.5495 C.ar    1  UNL1        0.1598
      8 F           7.0630   -4.8737   22.8684 F       1  UNL1       -0.2026
      9 O           3.9373   -4.9438   21.2698 O.2     1  UNL1       -0.2864
     10 C           4.7019   -3.6681   21.4642 C.2     1  UNL1        0.2015
     11 C           5.1044   -2.8462   20.2757 C.ar    1  UNL1        0.0612
     12 C           6.4179   -2.9219   19.5554 C.ar    1  UNL1        0.1037
     13 N           6.3893   -1.9268   18.4334 N.ar    1  UNL1       -0.2269
     14 C           5.0580   -1.2361   18.4603 C.ar    1  UNL1        0.1407
     15 N           4.4664   -0.1631   17.5950 N.ar    1  UNL1       -0.3367
     16 C           3.0806    0.3416   17.8685 C.ar    1  UNL1        0.0850
     17 C           2.2865   -0.2266   19.0071 C.ar    1  UNL1        0.0748
     18 CL          0.9006    0.2781   19.2805 Cl      1  UNL1       -0.0807
     19 C           2.8781   -1.2996   19.8723 C.ar    1  UNL1        0.0160
     20 C           4.2639   -1.8043   19.5989 C.ar    1  UNL1        0.0394
     21 H           4.9876    0.2098   16.8477 H       1  UNL1        0.1674
     22 N           7.7874   -3.9660   25.6346 N.pl3   1  UNL1       -0.2127
     23 H           8.6254   -4.1230   25.1424 H       1  UNL1        0.1738
     24 S           7.6911   -4.3297   27.0866 S.O2    1  UNL1        0.0759
     25 O           8.6734   -3.2472   27.4229 O.2     1  UNL1       -0.1499
     26 O           6.7087   -5.4122   26.7504 O.2     1  UNL1       -0.1499
     27 C           7.5946   -4.6934   28.5386 C.ar    1  UNL1        0.1547
     28 C           6.7620   -3.8597   29.4670 C.ar    1  UNL1        0.0521
     29 C           6.6655   -4.2234   30.9190 C.ar    1  UNL1        0.1416
     30 F           5.8328   -3.3897   31.8472 F       1  UNL1       -0.2041
     31 C           7.4017   -5.4207   31.4428 C.ar    1  UNL1        0.0320
     32 C           8.2344   -6.2543   30.5145 C.ar    1  UNL1        0.0333
     33 C           8.3309   -5.8907   29.0624 C.ar    1  UNL1        0.1590
     34 F           9.1636   -6.7244   28.1342 F       1  UNL1       -0.2027
@<TRIPOS>BOND
     1     9    10    2
     2    10     1    1
     3     1     2   ar
     4     2     3    1
     5     2     4   ar
     6     4     5   ar
     7     5     6   ar
     8     6    22    1
     9    22    24    1
    10    24    25    2
    11    24    26    2
    12    24    27    1
    13    27    28   ar
    14    28    29   ar
    15    29    30    1
    16    29    31   ar
    17    31    32   ar
    18    32    33   ar
    19    33    34    1
    20     6     7   ar
    21     7     8    1
    22    10    11    1
    23    11    12   ar
    24    12    13   ar
    25    13    14   ar
    26    14    15   ar
    27    15    16   ar
    28    16    17   ar
    29    17    18    1
    30    17    19   ar
    31    19    20   ar
    32     7     1   ar
    33    20    11   ar
    34    33    27   ar
    35    20    14    1
    36    22    23    1
    37    15    21    1
