@<TRIPOS>MOLECULE
*****
 42 47 0 0 0
SMALL
GASTEIGER

@<TRIPOS>ATOM
      1 N           1.2623    1.3416   29.8027 N.ar    1  UNL1       -0.2634
      2 C           2.1685    0.1833   30.0980 C.ar    1  UNL1        0.3328
      3 O           2.5149   -0.9284   29.1524 O.2     1  UNL1       -0.2462
      4 N           2.6672    0.3319   31.5048 N.ar    1  UNL1       -0.2739
      5 C           3.6001   -0.6052   32.2130 C.3     1  UNL1        0.1353
      6 C           2.0694    1.5820   32.0790 C.ar    1  UNL1        0.1345
      7 C           1.2011    2.2061   31.0271 C.ar    1  UNL1        0.1692
      8 N           0.4669    3.4808   31.3200 N.ar    1  UNL1       -0.1948
      9 C           0.6009    4.1316   32.6649 C.ar    1  UNL1        0.2176
     10 N          -0.1334    5.4064   32.9577 N.pl3   1  UNL1       -0.3273
     11 N           1.4692    3.5075   33.7168 N.ar    1  UNL1       -0.1794
     12 N           1.7927    3.9161   35.1233 N.ar    1  UNL1       -0.1398
     13 C           2.7268    2.8938   35.6997 C.ar    1  UNL1        0.2076
     14 N           2.9807    1.8534   34.6494 N.ar    1  UNL1       -0.2026
     15 C           2.2034    2.2327   33.4238 C.ar    1  UNL1        0.1871
     16 H          -0.7033    5.8160   32.2672 H       1  UNL1        0.1452
     17 H          -0.0454    5.8335   33.8403 H       1  UNL1        0.1452
     18 C           3.3056    2.9091   37.0835 C.ar    1  UNL1        0.1483
     19 N           4.3267    1.9518   37.6227 N.ar    1  UNL1       -0.2336
     20 C           4.6170    2.3355   39.0435 C.ar    1  UNL1        0.1066
     21 C           3.7753    3.5300   39.3823 C.ar    1  UNL1        0.0576
     22 S           2.9648    3.8845   38.1709 S.2     1  UNL1       -0.0628
     23 C           0.5436    1.5916   28.5101 C.3     1  UNL1        0.1293
     24 C           1.2578    2.2578   27.3715 C.3     1  UNL1        0.0972
     25 N           2.5420   -0.1585   23.7991 N.pl3   1  UNL1       -0.3046
     26 C           1.2417    0.5887   23.7710 C.3     1  UNL1        0.1081
     27 C           0.8135    1.3941   24.9617 C.3     1  UNL1        0.0939
     28 N           1.6859    1.4523   26.1807 N.3     1  UNL1       -0.2681
     29 C           2.9862    0.7052   26.2088 C.3     1  UNL1        0.0939
     30 C           3.4143   -0.1002   25.0180 C.3     1  UNL1        0.1081
     31 C           3.8263   -2.5748   20.2266 C.ar    1  UNL1        0.1660
     32 C           2.7826   -1.5082   20.0747 C.ar    1  UNL1        0.0405
     33 C           2.3545   -0.7028   21.2656 C.ar    1  UNL1        0.0178
     34 C           2.9701   -0.9639   22.6083 C.ar    1  UNL1        0.0504
     35 C           4.0138   -2.0305   22.7601 C.ar    1  UNL1        0.0473
     36 C           4.4419   -2.8359   21.5693 C.ar    1  UNL1        0.1750
     37 F           5.4856   -3.9025   21.7212 F       1  UNL1       -0.2009
     38 O           4.2544   -3.3802   19.0358 O.3     1  UNL1       -0.4705
     39 C           5.4876   -2.9949   18.2739 C.3     1  UNL1        0.2374
     40 C           5.8840   -1.5520   18.1687 C.3     1  UNL1        0.1894
     41 C           3.8876   -0.7996   16.6859 C.3     1  UNL1        0.1743
     42 O           5.3371   -0.7029   17.0596 O.3     1  UNL1       -0.3471
@<TRIPOS>BOND
     1    41    42    1
     2    42    40    1
     3    40    39    1
     4    39    38    1
     5    38    31    1
     6    31    32   ar
     7    32    33   ar
     8    33    34   ar
     9    34    25    1
    10    25    26    1
    11    26    27    1
    12    27    28    1
    13    28    24    1
    14    24    23    1
    15    23     1    1
    16     1     2   ar
    17     2     3    2
    18     2     4   ar
    19     4     5    1
    20     4     6   ar
    21     6     7   ar
    22     7     8   ar
    23     8     9   ar
    24     9    10    1
    25     9    11   ar
    26    11    12   ar
    27    12    13   ar
    28    13    18    1
    29    18    19   ar
    30    19    20   ar
    31    20    21   ar
    32    21    22   ar
    33    13    14   ar
    34    14    15   ar
    35    28    29    1
    36    29    30    1
    37    34    35   ar
    38    35    36   ar
    39    36    37    1
    40    36    31   ar
    41    30    25    1
    42     7     1   ar
    43    15    11   ar
    44    15     6   ar
    45    22    18   ar
    46    10    16    1
    47    10    17    1
@<TRIPOS>MOLECULE
*****
 42 47 0 0 0
SMALL
GASTEIGER

@<TRIPOS>ATOM
      1 N           7.0192   -2.5134   29.0546 N.ar    1  UNL1       -0.2634
      2 C           5.9587   -1.4566   28.9624 C.ar    1  UNL1        0.3328
      3 O           5.5414   -0.5278   30.0638 O.2     1  UNL1       -0.2462
      4 N           5.3888   -1.4916   27.5753 N.ar    1  UNL1       -0.2739
      5 C           4.3015   -0.6041   27.0461 C.3     1  UNL1        0.1353
      6 C           6.0971   -2.5701   26.8103 C.ar    1  UNL1        0.1345
      7 C           7.1047   -3.2016   27.7245 C.ar    1  UNL1        0.1692
      8 N           7.9699   -4.3216   27.2278 N.ar    1  UNL1       -0.1948
      9 C           7.8276   -4.8103   25.8167 C.ar    1  UNL1        0.2176
     10 N           8.6929   -5.9304   25.3201 N.pl3   1  UNL1       -0.3273
     11 N           6.8199   -4.1788   24.9025 N.ar    1  UNL1       -0.1794
     12 N           6.4559   -4.4465   23.4722 N.ar    1  UNL1       -0.1398
     13 C           5.3656   -3.4919   23.0850 C.ar    1  UNL1        0.2076
     14 N           5.0559   -2.6341   24.2760 N.ar    1  UNL1       -0.2026
     15 C           5.9547   -3.0587   25.3993 C.ar    1  UNL1        0.1871
     16 H           9.3542   -6.3449   25.9202 H       1  UNL1        0.1452
     17 H           8.5994   -6.2512   24.3940 H       1  UNL1        0.1452
     18 C           4.7016   -3.4093   21.7425 C.ar    1  UNL1        0.1483
     19 N           4.4682   -4.5547   20.8025 N.ar    1  UNL1       -0.2336
     20 C           3.7768   -4.0203   19.5833 C.ar    1  UNL1        0.1066
     21 C           3.5829   -2.5446   19.7698 C.ar    1  UNL1        0.0576
     22 S           4.1545   -2.1670   21.1043 S.2     1  UNL1       -0.0628
     23 C           7.8485   -2.8269   30.2645 C.3     1  UNL1        0.1293
     24 C           7.1951   -3.3658   31.5026 C.3     1  UNL1        0.0972
     25 N           5.0844   -0.5730   34.3302 N.pl3   1  UNL1       -0.3046
     26 C           4.3671   -1.7727   33.7860 C.3     1  UNL1        0.1081
     27 C           5.0705   -2.7036   32.8435 C.3     1  UNL1        0.0939
     28 N           6.4915   -2.4348   32.4452 N.3     1  UNL1       -0.2681
     29 C           7.2089   -1.2352   32.9893 C.3     1  UNL1        0.0939
     30 C           6.5054   -0.3043   33.9318 C.3     1  UNL1        0.1081
     31 C           2.9737    2.2198   37.1578 C.ar    1  UNL1        0.1660
     32 C           2.7977    2.3780   35.6766 C.ar    1  UNL1        0.0405
     33 C           3.5013    1.4470   34.7341 C.ar    1  UNL1        0.0178
     34 C           4.3809    0.3579   35.2727 C.ar    1  UNL1        0.0504
     35 C           4.5569    0.1998   36.7539 C.ar    1  UNL1        0.0473
     36 C           3.8533    1.1307   37.6965 C.ar    1  UNL1        0.1750
     37 F           4.0293    0.9726   39.1777 F       1  UNL1       -0.2009
     38 O           2.2702    3.1508   38.1003 O.3     1  UNL1       -0.4705
     39 C           0.9443    2.7645   38.6856 C.3     1  UNL1        0.2374
     40 C           0.8436    2.3957   40.1361 C.3     1  UNL1        0.1894
     41 C           1.0203   -0.1217   39.5182 C.3     1  UNL1        0.1743
     42 O           0.9662    0.9606   40.5553 O.3     1  UNL1       -0.3471
@<TRIPOS>BOND
     1    41    42    1
     2    42    40    1
     3    40    39    1
     4    39    38    1
     5    38    31    1
     6    31    32   ar
     7    32    33   ar
     8    33    34   ar
     9    34    25    1
    10    25    26    1
    11    26    27    1
    12    27    28    1
    13    28    24    1
    14    24    23    1
    15    23     1    1
    16     1     2   ar
    17     2     3    2
    18     2     4   ar
    19     4     5    1
    20     4     6   ar
    21     6     7   ar
    22     7     8   ar
    23     8     9   ar
    24     9    10    1
    25     9    11   ar
    26    11    12   ar
    27    12    13   ar
    28    13    18    1
    29    18    19   ar
    30    19    20   ar
    31    20    21   ar
    32    21    22   ar
    33    13    14   ar
    34    14    15   ar
    35    28    29    1
    36    29    30    1
    37    34    35   ar
    38    35    36   ar
    39    36    37    1
    40    36    31   ar
    41    30    25    1
    42     7     1   ar
    43    15    11   ar
    44    15     6   ar
    45    22    18   ar
    46    10    16    1
    47    10    17    1
@<TRIPOS>MOLECULE
*****
 42 47 0 0 0
SMALL
GASTEIGER

@<TRIPOS>ATOM
      1 N           4.4110   -1.3989   33.1980 N.ar    1  UNL1       -0.2634
      2 C           4.6755   -0.4975   34.3674 C.ar    1  UNL1        0.3328
      3 O           5.5548   -0.8114   35.5413 O.2     1  UNL1       -0.2462
      4 N           3.9063    0.7729   34.1567 N.ar    1  UNL1       -0.2739
      5 C           3.8814    1.9524   35.0830 C.3     1  UNL1        0.1353
      6 C           3.1664    0.6566   32.8570 C.ar    1  UNL1        0.1345
      7 C           3.4783   -0.6856   32.2645 C.ar    1  UNL1        0.1692
      8 N           2.8727   -1.0849   30.9516 N.ar    1  UNL1       -0.1948
      9 C           1.9552   -0.1419   30.2311 C.ar    1  UNL1        0.2176
     10 N           1.3496   -0.5413   28.9181 N.pl3   1  UNL1       -0.3273
     11 N           1.6433    1.2003   30.8236 N.ar    1  UNL1       -0.1794
     12 N           0.7811    2.3317   30.3477 N.ar    1  UNL1       -0.1398
     13 C           0.8538    3.4302   31.3665 C.ar    1  UNL1        0.2076
     14 N           1.7609    2.9777   32.4721 N.ar    1  UNL1       -0.2026
     15 C           2.2489    1.5996   32.1366 C.ar    1  UNL1        0.1871
     16 H           1.5544   -1.4222   28.5293 H       1  UNL1        0.1452
     17 H           0.7474    0.0776   28.4452 H       1  UNL1        0.1452
     18 C           0.1440    4.7496   31.2926 C.ar    1  UNL1        0.1483
     19 N          -0.6367    5.3939   32.3996 N.ar    1  UNL1       -0.2336
     20 C          -1.1729    6.6988   31.8900 C.ar    1  UNL1        0.1066
     21 C          -0.7236    6.8610   30.4681 C.ar    1  UNL1        0.0576
     22 S           0.0903    5.6563   30.0989 S.2     1  UNL1       -0.0628
     23 C           4.9794   -2.7725   32.9972 C.3     1  UNL1        0.1293
     24 C           6.3442   -2.9391   32.3975 C.3     1  UNL1        0.0972
     25 N           6.7789   -3.8491   28.0120 N.pl3   1  UNL1       -0.3046
     26 C           7.0188   -4.9256   29.0288 C.3     1  UNL1        0.1081
     27 C           6.8740   -4.6223   30.4905 C.3     1  UNL1        0.0939
     28 N           6.4891   -3.2425   30.9356 N.3     1  UNL1       -0.2681
     29 C           6.2492   -2.1660   29.9190 C.3     1  UNL1        0.0939
     30 C           6.3941   -2.4694   28.4571 C.3     1  UNL1        0.1081
     31 C           7.2136   -4.7592   23.6264 C.ar    1  UNL1        0.1660
     32 C           6.7912   -3.3900   24.0700 C.ar    1  UNL1        0.0405
     33 C           6.6463   -3.0866   25.5319 C.ar    1  UNL1        0.0178
     34 C           6.9238   -4.1525   26.5502 C.ar    1  UNL1        0.0504
     35 C           7.3463   -5.5217   26.1066 C.ar    1  UNL1        0.0473
     36 C           7.4912   -5.8250   24.6447 C.ar    1  UNL1        0.1750
     37 F           7.9137   -7.1942   24.2012 F       1  UNL1       -0.2009
     38 O           7.3585   -5.0625   22.1646 O.3     1  UNL1       -0.4705
     39 C           7.2650   -3.9561   21.1562 C.3     1  UNL1        0.2374
     40 C           5.9920   -3.7438   20.3917 C.3     1  UNL1        0.1894
     41 C           3.8791   -4.7506   19.2638 C.3     1  UNL1        0.1743
     42 O           5.2739   -4.9155   19.7904 O.3     1  UNL1       -0.3471
@<TRIPOS>BOND
     1    41    42    1
     2    42    40    1
     3    40    39    1
     4    39    38    1
     5    38    31    1
     6    31    32   ar
     7    32    33   ar
     8    33    34   ar
     9    34    25    1
    10    25    26    1
    11    26    27    1
    12    27    28    1
    13    28    24    1
    14    24    23    1
    15    23     1    1
    16     1     2   ar
    17     2     3    2
    18     2     4   ar
    19     4     5    1
    20     4     6   ar
    21     6     7   ar
    22     7     8   ar
    23     8     9   ar
    24     9    10    1
    25     9    11   ar
    26    11    12   ar
    27    12    13   ar
    28    13    18    1
    29    18    19   ar
    30    19    20   ar
    31    20    21   ar
    32    21    22   ar
    33    13    14   ar
    34    14    15   ar
    35    28    29    1
    36    29    30    1
    37    34    35   ar
    38    35    36   ar
    39    36    37    1
    40    36    31   ar
    41    30    25    1
    42     7     1   ar
    43    15    11   ar
    44    15     6   ar
    45    22    18   ar
    46    10    16    1
    47    10    17    1
@<TRIPOS>MOLECULE
*****
 42 47 0 0 0
SMALL
GASTEIGER

@<TRIPOS>ATOM
      1 N           8.4974   -3.6132   27.8059 N.ar    1  UNL1       -0.2634
      2 C           8.4054   -2.2454   27.1972 C.ar    1  UNL1        0.3328
      3 O           9.0004   -1.8215   25.8871 O.2     1  UNL1       -0.2462
      4 N           7.6138   -1.3758   28.1285 N.ar    1  UNL1       -0.2739
      5 C           7.2784    0.0702   27.9133 C.3     1  UNL1        0.1353
      6 C           7.2167   -2.2063   29.3128 C.ar    1  UNL1        0.1345
      7 C           7.7627   -3.5891   29.1135 C.ar    1  UNL1        0.1692
      8 N           7.5204   -4.6475   30.1483 N.ar    1  UNL1       -0.1948
      9 C           6.7320   -4.3232   31.3826 C.ar    1  UNL1        0.2176
     10 N           6.4898   -5.3818   32.4174 N.pl3   1  UNL1       -0.3273
     11 N           6.1860   -2.9404   31.5819 N.ar    1  UNL1       -0.1794
     12 N           5.3784   -2.3302   32.6889 N.ar    1  UNL1       -0.1398
     13 C           5.1216   -0.8946   32.3382 C.ar    1  UNL1        0.2076
     14 N           5.7705   -0.6175   31.0144 N.ar    1  UNL1       -0.2026
     15 C           6.4283   -1.8820   30.5470 C.ar    1  UNL1        0.1871
     16 H           6.8482   -6.2893   32.2865 H       1  UNL1        0.1452
     17 H           5.9723   -5.1689   33.2275 H       1  UNL1        0.1452
     18 C           4.3512    0.0910   33.1658 C.ar    1  UNL1        0.1483
     19 N           4.6106    0.4275   34.6044 N.ar    1  UNL1       -0.2336
     20 C           3.6058    1.4576   35.0279 C.ar    1  UNL1        0.1066
     21 C           2.7254    1.7578   33.8511 C.ar    1  UNL1        0.0576
     22 S           3.1861    0.9131   32.7003 S.2     1  UNL1       -0.0628
     23 C           9.2006   -4.7973   27.2114 C.3     1  UNL1        0.1293
     24 C           8.4750   -5.6994   26.2575 C.3     1  UNL1        0.0972
     25 N           6.9643   -4.0822   22.3393 N.pl3   1  UNL1       -0.3046
     26 C           8.2772   -4.8055   22.3960 C.3     1  UNL1        0.1081
     27 C           8.7808   -5.3446   23.7019 C.3     1  UNL1        0.0939
     28 N           7.9714   -5.1603   24.9514 N.3     1  UNL1       -0.2681
     29 C           6.6586   -4.4371   24.8948 C.3     1  UNL1        0.0939
     30 C           6.1550   -3.8980   23.5888 C.3     1  UNL1        0.1081
     31 C           5.4535   -2.4650   18.4211 C.ar    1  UNL1        0.1660
     32 C           6.8330   -2.1153   18.8949 C.ar    1  UNL1        0.0405
     33 C           7.3366   -2.6544   20.2009 C.ar    1  UNL1        0.0178
     34 C           6.4607   -3.5432   21.0333 C.ar    1  UNL1        0.0504
     35 C           5.0811   -3.8929   20.5595 C.ar    1  UNL1        0.0473
     36 C           4.5775   -3.3538   19.2534 C.ar    1  UNL1        0.1750
     37 F           3.1979   -3.7035   18.7797 F       1  UNL1       -0.2009
     38 O           4.9499   -1.9260   17.1150 O.3     1  UNL1       -0.4705
     39 C           3.9430   -0.8143   17.1008 C.3     1  UNL1        0.2374
     40 C           3.9396    0.2085   18.1980 C.3     1  UNL1        0.1894
     41 C           2.0996   -0.6696   19.8085 C.3     1  UNL1        0.1743
     42 O           2.6936    0.4449   18.9991 O.3     1  UNL1       -0.3471
@<TRIPOS>BOND
     1    41    42    1
     2    42    40    1
     3    40    39    1
     4    39    38    1
     5    38    31    1
     6    31    32   ar
     7    32    33   ar
     8    33    34   ar
     9    34    25    1
    10    25    26    1
    11    26    27    1
    12    27    28    1
    13    28    24    1
    14    24    23    1
    15    23     1    1
    16     1     2   ar
    17     2     3    2
    18     2     4   ar
    19     4     5    1
    20     4     6   ar
    21     6     7   ar
    22     7     8   ar
    23     8     9   ar
    24     9    10    1
    25     9    11   ar
    26    11    12   ar
    27    12    13   ar
    28    13    18    1
    29    18    19   ar
    30    19    20   ar
    31    20    21   ar
    32    21    22   ar
    33    13    14   ar
    34    14    15   ar
    35    28    29    1
    36    29    30    1
    37    34    35   ar
    38    35    36   ar
    39    36    37    1
    40    36    31   ar
    41    30    25    1
    42     7     1   ar
    43    15    11   ar
    44    15     6   ar
    45    22    18   ar
    46    10    16    1
    47    10    17    1
@<TRIPOS>MOLECULE
*****
 42 47 0 0 0
SMALL
GASTEIGER

@<TRIPOS>ATOM
      1 N           1.3042    0.7284   29.2966 N.ar    1  UNL1       -0.2634
      2 C           2.3879   -0.3025   29.4101 C.ar    1  UNL1        0.3328
      3 O           2.7813   -1.2884   28.3504 O.2     1  UNL1       -0.2462
      4 N           3.0091   -0.1743   30.7694 N.ar    1  UNL1       -0.2739
      5 C           4.1327   -1.0096   31.3076 C.3     1  UNL1        0.1353
      6 C           2.3093    0.9358   31.4960 C.ar    1  UNL1        0.1345
      7 C           1.2556    1.4938   30.5858 C.ar    1  UNL1        0.1692
      8 N           0.3882    2.6266   31.0485 N.ar    1  UNL1       -0.1948
      9 C           0.5742    3.2015   32.4214 C.ar    1  UNL1        0.2176
     10 N          -0.2934    4.3344   32.8840 N.pl3   1  UNL1       -0.3273
     11 N           1.6279    2.6436   33.3316 N.ar    1  UNL1       -0.1794
     12 N           2.0405    3.0030   34.7282 N.ar    1  UNL1       -0.1398
     13 C           3.1631    2.0922   35.1287 C.ar    1  UNL1        0.2076
     14 N           3.4443    1.1700   33.9796 N.ar    1  UNL1       -0.2026
     15 C           2.4954    1.5107   32.8689 C.ar    1  UNL1        0.1871
     16 H          -0.9849    4.7005   32.2866 H       1  UNL1        0.1452
     17 H          -0.1712    4.7117   33.7851 H       1  UNL1        0.1452
     18 C           3.8789    2.1020   36.4469 C.ar    1  UNL1        0.1483
     19 N           5.1975    2.7590   36.7292 N.ar    1  UNL1       -0.2336
     20 C           5.5353    2.5196   38.1710 C.ar    1  UNL1        0.1066
     21 C           4.4256    1.7146   38.7797 C.ar    1  UNL1        0.0576
     22 S           3.4018    1.4565   37.7140 S.2     1  UNL1       -0.0628
     23 C           0.4237    0.9544   28.1035 C.3     1  UNL1        0.1293
     24 C           0.7730    2.0171   27.1040 C.3     1  UNL1        0.0972
     25 N           1.9014    0.8699   22.9016 N.pl3   1  UNL1       -0.3046
     26 C           2.8275    0.5561   24.0391 C.3     1  UNL1        0.1081
     27 C           2.4515    0.9384   25.4398 C.3     1  UNL1        0.0939
     28 N           1.1492    1.6347   25.7032 N.3     1  UNL1       -0.2681
     29 C           0.2231    1.9486   24.5658 C.3     1  UNL1        0.0939
     30 C           0.5992    1.5662   23.1650 C.3     1  UNL1        0.1081
     31 C           3.0298   -0.2773   18.6991 C.ar    1  UNL1        0.1660
     32 C           2.5838    1.1228   19.0002 C.ar    1  UNL1        0.0405
     33 C           2.2077    1.5052   20.4011 C.ar    1  UNL1        0.0178
     34 C           2.2776    0.4875   21.5008 C.ar    1  UNL1        0.0504
     35 C           2.7236   -0.9126   21.1997 C.ar    1  UNL1        0.0473
     36 C           3.0997   -1.2950   19.7988 C.ar    1  UNL1        0.1750
     37 F           3.5458   -2.6951   19.4977 F       1  UNL1       -0.2009
     38 O           3.4060   -0.6597   17.2983 O.3     1  UNL1       -0.4705
     39 C           4.7228   -0.2215   16.7292 C.3     1  UNL1        0.2374
     40 C           5.9751   -0.3612   17.5429 C.3     1  UNL1        0.1894
     41 C           7.0342   -2.4156   18.7296 C.3     1  UNL1        0.1743
     42 O           6.7736   -1.6294   17.4789 O.3     1  UNL1       -0.3471
@<TRIPOS>BOND
     1    41    42    1
     2    42    40    1
     3    40    39    1
     4    39    38    1
     5    38    31    1
     6    31    32   ar
     7    32    33   ar
     8    33    34   ar
     9    34    25    1
    10    25    26    1
    11    26    27    1
    12    27    28    1
    13    28    24    1
    14    24    23    1
    15    23     1    1
    16     1     2   ar
    17     2     3    2
    18     2     4   ar
    19     4     5    1
    20     4     6   ar
    21     6     7   ar
    22     7     8   ar
    23     8     9   ar
    24     9    10    1
    25     9    11   ar
    26    11    12   ar
    27    12    13   ar
    28    13    18    1
    29    18    19   ar
    30    19    20   ar
    31    20    21   ar
    32    21    22   ar
    33    13    14   ar
    34    14    15   ar
    35    28    29    1
    36    29    30    1
    37    34    35   ar
    38    35    36   ar
    39    36    37    1
    40    36    31   ar
    41    30    25    1
    42     7     1   ar
    43    15    11   ar
    44    15     6   ar
    45    22    18   ar
    46    10    16    1
    47    10    17    1
@<TRIPOS>MOLECULE
*****
 42 47 0 0 0
SMALL
GASTEIGER

@<TRIPOS>ATOM
      1 N           3.2345   -0.3254   30.8251 N.ar    1  UNL1       -0.2634
      2 C           4.4107   -0.9837   31.4834 C.ar    1  UNL1        0.3328
      3 O           5.2524   -2.0770   30.8951 O.2     1  UNL1       -0.2462
      4 N           4.5973   -0.3567   32.8332 N.ar    1  UNL1       -0.2739
      5 C           5.6584   -0.7130   33.8317 C.3     1  UNL1        0.1353
      6 C           3.5364    0.6891   33.0092 C.ar    1  UNL1        0.1345
      7 C           2.6942    0.7084   31.7682 C.ar    1  UNL1        0.1692
      8 N           1.5441    1.6649   31.6571 N.ar    1  UNL1       -0.1948
      9 C           1.2362    2.6021   32.7871 C.ar    1  UNL1        0.2176
     10 N           0.0860    3.5586   32.6760 N.pl3   1  UNL1       -0.3273
     11 N           2.0784    2.5827   34.0282 N.ar    1  UNL1       -0.1794
     12 N           2.0164    3.3823   35.2958 N.ar    1  UNL1       -0.1398
     13 C           3.1282    2.9199   36.1903 C.ar    1  UNL1        0.2076
     14 N           3.8773    1.8346   35.4755 N.ar    1  UNL1       -0.2026
     15 C           3.2285    1.6262   34.1392 C.ar    1  UNL1        0.1871
     16 H          -0.4668    3.5712   31.8615 H       1  UNL1        0.1452
     17 H          -0.1161    4.1737   33.4177 H       1  UNL1        0.1452
     18 C           3.4367    3.4498   37.5592 C.ar    1  UNL1        0.1483
     19 N           4.5531    4.3881   37.9105 N.ar    1  UNL1       -0.2336
     20 C           4.4894    4.6526   39.3856 C.ar    1  UNL1        0.1066
     21 C           3.3337    3.8778   39.9461 C.ar    1  UNL1        0.0576
     22 S           2.6831    3.1344   38.8172 S.2     1  UNL1       -0.0628
     23 C           2.6936   -0.6449   29.4630 C.3     1  UNL1        0.1293
     24 C           2.6559    0.4161   28.4032 C.3     1  UNL1        0.0972
     25 N           3.1270   -0.7120   24.0725 N.pl3   1  UNL1       -0.3046
     26 C           2.2072    0.4077   24.4601 C.3     1  UNL1        0.1081
     27 C           2.0501    0.7837   25.9036 C.3     1  UNL1        0.0939
     28 N           2.8129    0.0400   26.9596 N.3     1  UNL1       -0.2681
     29 C           3.7327   -1.0796   26.5721 C.3     1  UNL1        0.0939
     30 C           3.8898   -1.4556   25.1285 C.3     1  UNL1        0.1081
     31 C           3.5981   -1.8401   19.7417 C.ar    1  UNL1        0.1660
     32 C           2.7101   -0.6938   20.1258 C.ar    1  UNL1        0.0405
     33 C           2.5531   -0.3178   21.5694 C.ar    1  UNL1        0.0178
     34 C           3.2840   -1.0880   22.6289 C.ar    1  UNL1        0.0504
     35 C           4.1720   -2.2343   22.2447 C.ar    1  UNL1        0.0473
     36 C           4.3290   -2.6103   20.8011 C.ar    1  UNL1        0.1750
     37 F           5.2170   -3.7566   20.4170 F       1  UNL1       -0.2009
     38 O           3.7551   -2.2161   18.2981 O.3     1  UNL1       -0.4705
     39 C           4.0890   -1.1651   17.2814 C.3     1  UNL1        0.2374
     40 C           5.4142   -0.4643   17.3346 C.3     1  UNL1        0.1894
     41 C           7.3024   -1.8970   18.3986 C.3     1  UNL1        0.1743
     42 O           6.6843   -1.2500   17.1947 O.3     1  UNL1       -0.3471
@<TRIPOS>BOND
     1    41    42    1
     2    42    40    1
     3    40    39    1
     4    39    38    1
     5    38    31    1
     6    31    32   ar
     7    32    33   ar
     8    33    34   ar
     9    34    25    1
    10    25    26    1
    11    26    27    1
    12    27    28    1
    13    28    24    1
    14    24    23    1
    15    23     1    1
    16     1     2   ar
    17     2     3    2
    18     2     4   ar
    19     4     5    1
    20     4     6   ar
    21     6     7   ar
    22     7     8   ar
    23     8     9   ar
    24     9    10    1
    25     9    11   ar
    26    11    12   ar
    27    12    13   ar
    28    13    18    1
    29    18    19   ar
    30    19    20   ar
    31    20    21   ar
    32    21    22   ar
    33    13    14   ar
    34    14    15   ar
    35    28    29    1
    36    29    30    1
    37    34    35   ar
    38    35    36   ar
    39    36    37    1
    40    36    31   ar
    41    30    25    1
    42     7     1   ar
    43    15    11   ar
    44    15     6   ar
    45    22    18   ar
    46    10    16    1
    47    10    17    1
@<TRIPOS>MOLECULE
*****
 42 47 0 0 0
SMALL
GASTEIGER

@<TRIPOS>ATOM
      1 N           7.9741   -5.7535   29.1299 N.ar    1  UNL1       -0.2634
      2 C           8.5015   -6.9119   28.3361 C.ar    1  UNL1        0.3328
      3 O           9.2151   -8.1089   28.8911 O.2     1  UNL1       -0.2462
      4 N           8.1900   -6.6631   26.8901 N.ar    1  UNL1       -0.2739
      5 C           8.5374   -7.5676   25.7451 C.3     1  UNL1        0.1353
      6 C           7.4701   -5.3509   26.7902 C.ar    1  UNL1        0.1345
      7 C           7.3366   -4.7888   28.1744 C.ar    1  UNL1        0.1692
      8 N           6.6519   -3.4711   28.3860 N.ar    1  UNL1       -0.1948
      9 C           6.1006   -2.7155   27.2133 C.ar    1  UNL1        0.2176
     10 N           5.4158   -1.3977   27.4250 N.pl3   1  UNL1       -0.3273
     11 N           6.2340   -3.2776   25.8290 N.ar    1  UNL1       -0.1794
     12 N           5.7930   -2.7642   24.4905 N.ar    1  UNL1       -0.1398
     13 C           6.2052   -3.7646   23.4516 C.ar    1  UNL1        0.2076
     14 N           6.9009   -4.8963   24.1481 N.ar    1  UNL1       -0.2026
     15 C           6.9188   -4.5953   25.6175 C.ar    1  UNL1        0.1871
     16 H           5.3283   -1.0288   28.3335 H       1  UNL1        0.1452
     17 H           5.0540   -0.9018   26.6553 H       1  UNL1        0.1452
     18 C           5.9639   -3.6529   21.9753 C.ar    1  UNL1        0.1483
     19 N           4.8919   -4.3610   21.2011 N.ar    1  UNL1       -0.2336
     20 C           5.0178   -3.9593   19.7614 C.ar    1  UNL1        0.1066
     21 C           6.1676   -3.0029   19.6457 C.ar    1  UNL1        0.0576
     22 S           6.7524   -2.8136   21.0141 S.2     1  UNL1       -0.0628
     23 C           8.0677   -5.5888   30.6179 C.3     1  UNL1        0.1293
     24 C           8.6551   -4.3365   31.1984 C.3     1  UNL1        0.0972
     25 N           6.0359   -1.4630   33.4639 N.pl3   1  UNL1       -0.3046
     26 C           5.4348   -2.6758   32.8174 C.3     1  UNL1        0.1081
     27 C           6.3077   -3.6337   32.0623 C.3     1  UNL1        0.0939
     28 N           7.7820   -3.3787   31.9536 N.3     1  UNL1       -0.2681
     29 C           8.3831   -2.1660   32.5999 C.3     1  UNL1        0.0939
     30 C           7.5100   -1.2081   33.3551 C.3     1  UNL1        0.1081
     31 C           3.4166    1.4105   35.7294 C.ar    1  UNL1        0.1660
     32 C           4.3564    0.5074   36.4717 C.ar    1  UNL1        0.0405
     33 C           5.2295   -0.4505   35.7165 C.ar    1  UNL1        0.0178
     34 C           5.1628   -0.5052   34.2190 C.ar    1  UNL1        0.0504
     35 C           4.2230    0.3979   33.4767 C.ar    1  UNL1        0.0473
     36 C           3.3499    1.3558   34.2318 C.ar    1  UNL1        0.1750
     37 F           2.4101    2.2589   33.4895 F       1  UNL1       -0.2009
     38 O           2.5435    2.3684   36.4845 O.3     1  UNL1       -0.4705
     39 C           3.1593    3.3693   37.4166 C.3     1  UNL1        0.2374
     40 C           2.7496    3.4018   38.8592 C.3     1  UNL1        0.1894
     41 C           0.7497    1.8803   39.5190 C.3     1  UNL1        0.1743
     42 O           2.2232    2.1610   39.5176 O.3     1  UNL1       -0.3471
@<TRIPOS>BOND
     1    41    42    1
     2    42    40    1
     3    40    39    1
     4    39    38    1
     5    38    31    1
     6    31    32   ar
     7    32    33   ar
     8    33    34   ar
     9    34    25    1
    10    25    26    1
    11    26    27    1
    12    27    28    1
    13    28    24    1
    14    24    23    1
    15    23     1    1
    16     1     2   ar
    17     2     3    2
    18     2     4   ar
    19     4     5    1
    20     4     6   ar
    21     6     7   ar
    22     7     8   ar
    23     8     9   ar
    24     9    10    1
    25     9    11   ar
    26    11    12   ar
    27    12    13   ar
    28    13    18    1
    29    18    19   ar
    30    19    20   ar
    31    20    21   ar
    32    21    22   ar
    33    13    14   ar
    34    14    15   ar
    35    28    29    1
    36    29    30    1
    37    34    35   ar
    38    35    36   ar
    39    36    37    1
    40    36    31   ar
    41    30    25    1
    42     7     1   ar
    43    15    11   ar
    44    15     6   ar
    45    22    18   ar
    46    10    16    1
    47    10    17    1
@<TRIPOS>MOLECULE
*****
 42 47 0 0 0
SMALL
GASTEIGER

@<TRIPOS>ATOM
      1 N           8.2444   -3.5429   24.9515 N.ar    1  UNL1       -0.2634
      2 C           7.9441   -2.0751   24.8768 C.ar    1  UNL1        0.3328
      3 O           8.1245   -1.1985   23.6731 O.2     1  UNL1       -0.2462
      4 N           7.4317   -1.6380   26.2171 N.ar    1  UNL1       -0.2739
      5 C           7.0097   -0.2475   26.5889 C.3     1  UNL1        0.1353
      6 C           7.4153   -2.8356   27.1202 C.ar    1  UNL1        0.1345
      7 C           7.9175   -4.0129   26.3380 C.ar    1  UNL1        0.1692
      8 N           8.0124   -5.3607   26.9893 N.ar    1  UNL1       -0.1948
      9 C           7.6050   -5.5313   28.4229 C.ar    1  UNL1        0.2176
     10 N           7.6999   -6.8792   29.0742 N.pl3   1  UNL1       -0.3273
     11 N           7.1027   -4.3540   29.2050 N.ar    1  UNL1       -0.1794
     12 N           6.6325   -4.2178   30.6229 N.ar    1  UNL1       -0.1398
     13 C           6.2471   -2.7858   30.8478 C.ar    1  UNL1        0.2076
     14 N           6.4790   -2.0369   29.5690 N.ar    1  UNL1       -0.2026
     15 C           7.0079   -3.0062   28.5536 C.ar    1  UNL1        0.1871
     16 H           8.0295   -7.6519   28.5608 H       1  UNL1        0.1452
     17 H           7.4325   -6.9913   30.0151 H       1  UNL1        0.1452
     18 C           5.7219   -2.2045   32.1270 C.ar    1  UNL1        0.1483
     19 N           4.3684   -2.4597   32.7211 N.ar    1  UNL1       -0.2336
     20 C           4.2679   -1.6790   33.9979 C.ar    1  UNL1        0.1066
     21 C           5.5593   -0.9413   34.1930 C.ar    1  UNL1        0.0576
     22 S           6.4580   -1.2661   33.0367 S.2     1  UNL1       -0.0628
     23 C           8.7778   -4.3916   23.8357 C.3     1  UNL1        0.1293
     24 C           7.8367   -4.9887   22.8317 C.3     1  UNL1        0.0972
     25 N           4.7806   -2.3918   20.7905 N.pl3   1  UNL1       -0.3046
     26 C           4.4666   -3.0188   22.1165 C.3     1  UNL1        0.1081
     27 C           5.4852   -3.8843   22.7970 C.3     1  UNL1        0.0939
     28 N           6.8180   -4.1230   22.1513 N.3     1  UNL1       -0.2681
     29 C           7.1320   -3.4961   20.8253 C.3     1  UNL1        0.0939
     30 C           6.1133   -2.6305   20.1449 C.3     1  UNL1        0.1081
     31 C           1.7244    0.2051   18.7493 C.ar    1  UNL1        0.1660
     32 C           3.0491   -0.0509   18.0938 C.ar    1  UNL1        0.0405
     33 C           4.0678   -0.9165   18.7742 C.ar    1  UNL1        0.0178
     34 C           3.7619   -1.5262   20.1101 C.ar    1  UNL1        0.0504
     35 C           2.4372   -1.2702   20.7657 C.ar    1  UNL1        0.0473
     36 C           1.4185   -0.4046   20.0853 C.ar    1  UNL1        0.1750
     37 F           0.0938   -0.1486   20.7408 F       1  UNL1       -0.2009
     38 O           0.7057    1.0707   18.0689 O.3     1  UNL1       -0.4705
     39 C           0.6015    2.5249   18.4216 C.3     1  UNL1        0.2374
     40 C          -0.4524    2.9899   19.3824 C.3     1  UNL1        0.1894
     41 C          -0.5556    2.9127   21.9773 C.3     1  UNL1        0.1743
     42 O          -0.0565    3.5521   20.7156 O.3     1  UNL1       -0.3471
@<TRIPOS>BOND
     1    41    42    1
     2    42    40    1
     3    40    39    1
     4    39    38    1
     5    38    31    1
     6    31    32   ar
     7    32    33   ar
     8    33    34   ar
     9    34    25    1
    10    25    26    1
    11    26    27    1
    12    27    28    1
    13    28    24    1
    14    24    23    1
    15    23     1    1
    16     1     2   ar
    17     2     3    2
    18     2     4   ar
    19     4     5    1
    20     4     6   ar
    21     6     7   ar
    22     7     8   ar
    23     8     9   ar
    24     9    10    1
    25     9    11   ar
    26    11    12   ar
    27    12    13   ar
    28    13    18    1
    29    18    19   ar
    30    19    20   ar
    31    20    21   ar
    32    21    22   ar
    33    13    14   ar
    34    14    15   ar
    35    28    29    1
    36    29    30    1
    37    34    35   ar
    38    35    36   ar
    39    36    37    1
    40    36    31   ar
    41    30    25    1
    42     7     1   ar
    43    15    11   ar
    44    15     6   ar
    45    22    18   ar
    46    10    16    1
    47    10    17    1
@<TRIPOS>MOLECULE
*****
 42 47 0 0 0
SMALL
GASTEIGER

@<TRIPOS>ATOM
      1 N           7.0667   -3.5126   21.8184 N.ar    1  UNL1       -0.2634
      2 C           7.7434   -4.8389   22.0000 C.ar    1  UNL1        0.3328
      3 O           8.3007   -5.7013   20.9065 O.2     1  UNL1       -0.2462
      4 N           7.7649   -5.1514   23.4669 N.ar    1  UNL1       -0.2739
      5 C           8.3474   -6.3812   24.0979 C.3     1  UNL1        0.1353
      6 C           7.1014   -4.0182   24.1920 C.ar    1  UNL1        0.1345
      7 C           6.6700   -3.0053   23.1732 C.ar    1  UNL1        0.1692
      8 N           5.9716   -1.7521   23.6107 N.ar    1  UNL1       -0.1948
      9 C           5.7046   -1.5116   25.0671 C.ar    1  UNL1        0.2176
     10 N           5.0062   -0.2583   25.5046 N.pl3   1  UNL1       -0.3273
     11 N           6.1361   -2.5245   26.0859 N.ar    1  UNL1       -0.1794
     12 N           6.0106   -2.5613   27.5801 N.ar    1  UNL1       -0.1398
     13 C           6.6315   -3.8374   28.0661 C.ar    1  UNL1        0.2076
     14 N           7.1407   -4.5892   26.8722 N.ar    1  UNL1       -0.2026
     15 C           6.8345   -3.7778   25.6483 C.ar    1  UNL1        0.1871
     16 H           4.7230    0.4065   24.8359 H       1  UNL1        0.1452
     17 H           4.8309   -0.1004   26.4604 H       1  UNL1        0.1452
     18 C           6.7265   -4.2833   29.4951 C.ar    1  UNL1        0.1483
     19 N           6.4205   -3.4468   30.7020 N.ar    1  UNL1       -0.2336
     20 C           6.6490   -4.2905   31.9209 C.ar    1  UNL1        0.1066
     21 C           7.0963   -5.6486   31.4674 C.ar    1  UNL1        0.0576
     22 S           7.1441   -5.6441   29.9681 S.2     1  UNL1       -0.0628
     23 C           6.8286   -2.8158   20.5116 C.3     1  UNL1        0.1293
     24 C           5.5548   -3.0537   19.7560 C.3     1  UNL1        0.0972
     25 N           2.3333    0.0881   19.7312 N.pl3   1  UNL1       -0.3046
     26 C           3.1868   -0.1205   18.5155 C.3     1  UNL1        0.1081
     27 C           4.2606   -1.1677   18.5237 C.3     1  UNL1        0.0939
     28 N           4.4809   -2.0064   19.7477 N.3     1  UNL1       -0.2681
     29 C           3.6274   -1.7978   20.9634 C.3     1  UNL1        0.0939
     30 C           2.5536   -0.7505   20.9551 C.3     1  UNL1        0.1081
     31 C          -0.8883    3.2300   19.7064 C.ar    1  UNL1        0.1660
     32 C          -0.1314    2.9220   18.4485 C.ar    1  UNL1        0.0405
     33 C           0.9425    1.8747   18.4568 C.ar    1  UNL1        0.0178
     34 C           1.2594    1.1354   19.7229 C.ar    1  UNL1        0.0504
     35 C           0.5025    1.4434   20.9807 C.ar    1  UNL1        0.0473
     36 C          -0.5713    2.4907   20.9725 C.ar    1  UNL1        0.1750
     37 F          -1.3282    2.7988   22.2303 F       1  UNL1       -0.2009
     38 O          -1.9621    4.2773   19.6981 O.3     1  UNL1       -0.4705
     39 C          -3.2747    4.0002   19.0272 C.3     1  UNL1        0.2374
     40 C          -4.4456    3.5269   19.8367 C.3     1  UNL1        0.1894
     41 C          -4.7112    3.2791   22.4093 C.3     1  UNL1        0.1743
     42 O          -4.2192    2.7451   21.0967 O.3     1  UNL1       -0.3471
@<TRIPOS>BOND
     1    41    42    1
     2    42    40    1
     3    40    39    1
     4    39    38    1
     5    38    31    1
     6    31    32   ar
     7    32    33   ar
     8    33    34   ar
     9    34    25    1
    10    25    26    1
    11    26    27    1
    12    27    28    1
    13    28    24    1
    14    24    23    1
    15    23     1    1
    16     1     2   ar
    17     2     3    2
    18     2     4   ar
    19     4     5    1
    20     4     6   ar
    21     6     7   ar
    22     7     8   ar
    23     8     9   ar
    24     9    10    1
    25     9    11   ar
    26    11    12   ar
    27    12    13   ar
    28    13    18    1
    29    18    19   ar
    30    19    20   ar
    31    20    21   ar
    32    21    22   ar
    33    13    14   ar
    34    14    15   ar
    35    28    29    1
    36    29    30    1
    37    34    35   ar
    38    35    36   ar
    39    36    37    1
    40    36    31   ar
    41    30    25    1
    42     7     1   ar
    43    15    11   ar
    44    15     6   ar
    45    22    18   ar
    46    10    16    1
    47    10    17    1
