@<TRIPOS>MOLECULE
*****
 30 33 0 0 0
SMALL
GASTEIGER

@<TRIPOS>ATOM
      1 C           7.4564   -3.5226   24.3684 C.3     1  UNL1        0.0999
      2 C           6.8041   -3.3035   23.0355 C.3     1  UNL1        0.1138
      3 N           6.7999   -1.9364   22.4183 N.pl3   1  UNL1       -0.2763
      4 C           7.4480   -0.7884   23.1339 C.3     1  UNL1        0.1107
      5 C           8.1003   -1.0075   24.4668 C.3     1  UNL1        0.0906
      6 N           8.1045   -2.3747   25.0840 N.3     1  UNL1       -0.2922
      7 H           7.6395   -2.2910   25.9880 H       1  UNL1        0.1236
      8 C           6.1476   -1.7173   21.0854 C.ar    1  UNL1        0.2035
      9 N           4.7821   -1.1010   21.0109 N.ar    1  UNL1       -0.2148
     10 C           4.1299   -0.8819   19.6781 C.ar    1  UNL1        0.0890
     11 C           4.8431   -1.2790   18.4197 C.ar    1  UNL1        0.0800
     12 C           6.2087   -1.8953   18.4941 C.ar    1  UNL1        0.2645
     13 O           6.9219   -2.2924   17.2358 O.2     1  UNL1       -0.2668
     14 N           6.8609   -2.1144   19.8270 N.ar    1  UNL1       -0.2667
     15 C           8.2264   -2.7307   19.9015 C.3     1  UNL1        0.1363
     16 C           2.7643   -0.2656   19.6036 C.ar    1  UNL1        0.0210
     17 C           1.7785   -0.4907   20.7115 C.ar    1  UNL1        0.0222
     18 C           0.4130    0.1256   20.6370 C.ar    1  UNL1        0.0989
     19 N           0.0333    0.9670   19.4547 N.ar    1  UNL1       -0.2423
     20 C           1.0192    1.1921   18.3468 C.ar    1  UNL1        0.0989
     21 C           2.3847    0.5758   18.4213 C.ar    1  UNL1        0.0222
     22 C           6.9544   -5.0827   26.3844 C.ar    1  UNL1        0.1382
     23 C           6.9586   -6.4498   27.0015 C.ar    1  UNL1        0.0662
     24 C           7.4688   -7.6240   26.2199 C.ar    1  UNL1        0.1431
     25 F           7.4730   -8.9912   26.8372 F       1  UNL1       -0.2041
     26 C           7.9749   -7.4311   24.8212 C.ar    1  UNL1        0.0296
     27 C           7.9708   -6.0640   24.2040 C.ar    1  UNL1        0.0024
     28 C           7.4605   -4.8898   24.9856 C.ar    1  UNL1        0.0278
     29 C           6.5281   -3.9108   28.6636 C.3     1  UNL1        0.2525
     30 O           6.4442   -3.9085   27.1660 O.3     1  UNL1       -0.4716
@<TRIPOS>BOND
     1    29    30    1
     2    30    22    1
     3    22    23   ar
     4    23    24   ar
     5    24    25    1
     6    24    26   ar
     7    26    27   ar
     8    27    28   ar
     9    28     1    1
    10     1     2    1
    11     2     3    1
    12     3     8    1
    13     8     9   ar
    14     9    10   ar
    15    10    16    1
    16    16    17   ar
    17    17    18   ar
    18    18    19   ar
    19    19    20   ar
    20    20    21   ar
    21    10    11   ar
    22    11    12   ar
    23    12    13    2
    24    12    14   ar
    25    14    15    1
    26     3     4    1
    27     4     5    1
    28     5     6    1
    29    28    22   ar
    30     6     1    1
    31    14     8   ar
    32    21    16   ar
    33     6     7    1
@<TRIPOS>MOLECULE
*****
 30 33 0 0 0
SMALL
GASTEIGER

@<TRIPOS>ATOM
      1 C           6.1893   -3.0215   22.2146 C.3     1  UNL1        0.0999
      2 C           6.2029   -3.7600   23.5201 C.3     1  UNL1        0.1138
      3 N           7.4826   -4.3488   24.0355 N.pl3   1  UNL1       -0.2763
      4 C           8.7488   -4.1990   23.2454 C.3     1  UNL1        0.1107
      5 C           8.7353   -3.4605   21.9398 C.3     1  UNL1        0.0906
      6 N           7.4555   -2.8717   21.4245 N.3     1  UNL1       -0.2922
      7 H           7.2843   -3.2929   20.5114 H       1  UNL1        0.1236
      8 C           7.4961   -5.0873   25.3410 C.ar    1  UNL1        0.2035
      9 N           7.1830   -4.3622   26.6162 N.ar    1  UNL1       -0.2148
     10 C           7.1966   -5.1007   27.9217 C.ar    1  UNL1        0.0890
     11 C           7.5232   -6.5644   27.9521 C.ar    1  UNL1        0.0800
     12 C           7.8364   -7.2896   26.6768 C.ar    1  UNL1        0.2645
     13 O           8.1630   -8.7532   26.7072 O.2     1  UNL1       -0.2668
     14 N           7.8228   -6.5510   25.3713 N.ar    1  UNL1       -0.2667
     15 C           8.1359   -7.2762   24.0962 C.3     1  UNL1        0.1363
     16 C           6.8835   -4.3755   29.1970 C.ar    1  UNL1        0.0210
     17 C           6.4495   -2.9403   29.1564 C.ar    1  UNL1        0.0222
     18 C           6.1364   -2.2152   30.4316 C.ar    1  UNL1        0.0989
     19 N           6.2573   -2.9253   31.7473 N.ar    1  UNL1       -0.2423
     20 C           6.6913   -4.3605   31.7878 C.ar    1  UNL1        0.0989
     21 C           7.0044   -5.0856   30.5127 C.ar    1  UNL1        0.0222
     22 C           4.4420   -2.7537   20.3106 C.ar    1  UNL1        0.1382
     23 C           3.1622   -2.1650   19.7953 C.ar    1  UNL1        0.0662
     24 C           2.3500   -1.2552   20.6686 C.ar    1  UNL1        0.1431
     25 F           1.0702   -0.6664   20.1533 F       1  UNL1       -0.2041
     26 C           2.8176   -0.9342   22.0572 C.ar    1  UNL1        0.0296
     27 C           4.0973   -1.5229   22.5725 C.ar    1  UNL1        0.0024
     28 C           4.9095   -2.4327   21.6992 C.ar    1  UNL1        0.0278
     29 C           4.6453   -4.9221   18.8941 C.3     1  UNL1        0.2525
     30 O           5.2541   -3.6635   19.4373 O.3     1  UNL1       -0.4716
@<TRIPOS>BOND
     1    29    30    1
     2    30    22    1
     3    22    23   ar
     4    23    24   ar
     5    24    25    1
     6    24    26   ar
     7    26    27   ar
     8    27    28   ar
     9    28     1    1
    10     1     2    1
    11     2     3    1
    12     3     8    1
    13     8     9   ar
    14     9    10   ar
    15    10    16    1
    16    16    17   ar
    17    17    18   ar
    18    18    19   ar
    19    19    20   ar
    20    20    21   ar
    21    10    11   ar
    22    11    12   ar
    23    12    13    2
    24    12    14   ar
    25    14    15    1
    26     3     4    1
    27     4     5    1
    28     5     6    1
    29    28    22   ar
    30     6     1    1
    31    14     8   ar
    32    21    16   ar
    33     6     7    1
@<TRIPOS>MOLECULE
*****
 30 33 0 0 0
SMALL
GASTEIGER

@<TRIPOS>ATOM
      1 C          -3.9481    3.9056   19.1790 C.3     1  UNL1        0.0999
      2 C          -2.4628    3.7323   19.2961 C.3     1  UNL1        0.1138
      3 N          -1.6164    3.6601   18.0598 N.pl3   1  UNL1       -0.2763
      4 C          -2.2553    3.7612   16.7064 C.3     1  UNL1        0.1107
      5 C          -3.7407    3.9345   16.5894 C.3     1  UNL1        0.0906
      6 N          -4.5871    4.0067   17.8257 N.3     1  UNL1       -0.2922
      7 H          -5.2654    3.2476   17.7629 H       1  UNL1        0.1236
      8 C          -0.1310    3.4867   18.1769 C.ar    1  UNL1        0.2035
      9 N           0.4528    2.1159   18.3498 N.ar    1  UNL1       -0.2148
     10 C           1.9381    1.9426   18.4668 C.ar    1  UNL1        0.0890
     11 C           2.8397    3.1401   18.4110 C.ar    1  UNL1        0.0800
     12 C           2.2559    4.5110   18.2381 C.ar    1  UNL1        0.2645
     13 O           3.1574    5.7085   18.1822 O.2     1  UNL1       -0.2668
     14 N           0.7705    4.6843   18.1210 N.ar    1  UNL1       -0.2667
     15 C           0.1867    6.0552   17.9481 C.3     1  UNL1        0.1363
     16 C           2.5219    0.5717   18.6397 C.ar    1  UNL1        0.0210
     17 C           3.4724    0.0265   17.6153 C.ar    1  UNL1        0.0222
     18 C           4.0561   -1.3443   17.7883 C.ar    1  UNL1        0.0989
     19 N           3.6894   -2.1701   18.9856 N.ar    1  UNL1       -0.2423
     20 C           2.7389   -1.6250   20.0100 C.ar    1  UNL1        0.0989
     21 C           2.1552   -0.2541   19.8371 C.ar    1  UNL1        0.0222
     22 C          -6.0277    4.8317   20.4312 C.ar    1  UNL1        0.1382
     23 C          -6.8740    4.9039   21.6675 C.ar    1  UNL1        0.0662
     24 C          -6.4872    4.1222   22.8880 C.ar    1  UNL1        0.1431
     25 F          -7.3336    4.1944   24.1243 F       1  UNL1       -0.2041
     26 C          -5.2540    3.2684   22.8721 C.ar    1  UNL1        0.0296
     27 C          -4.4077    3.1962   21.6358 C.ar    1  UNL1        0.0024
     28 C          -4.7945    3.9779   20.4154 C.ar    1  UNL1        0.0278
     29 C          -7.8305    5.5810   18.7171 C.3     1  UNL1        0.2525
     30 O          -6.4145    5.6133   19.2108 O.3     1  UNL1       -0.4716
@<TRIPOS>BOND
     1    29    30    1
     2    30    22    1
     3    22    23   ar
     4    23    24   ar
     5    24    25    1
     6    24    26   ar
     7    26    27   ar
     8    27    28   ar
     9    28     1    1
    10     1     2    1
    11     2     3    1
    12     3     8    1
    13     8     9   ar
    14     9    10   ar
    15    10    16    1
    16    16    17   ar
    17    17    18   ar
    18    18    19   ar
    19    19    20   ar
    20    20    21   ar
    21    10    11   ar
    22    11    12   ar
    23    12    13    2
    24    12    14   ar
    25    14    15    1
    26     3     4    1
    27     4     5    1
    28     5     6    1
    29    28    22   ar
    30     6     1    1
    31    14     8   ar
    32    21    16   ar
    33     6     7    1
@<TRIPOS>MOLECULE
*****
 30 33 0 0 0
SMALL
GASTEIGER

@<TRIPOS>ATOM
      1 C           3.6417   -0.2951   21.7096 C.3     1  UNL1        0.0999
      2 C           2.6594   -0.0642   22.8194 C.3     1  UNL1        0.1138
      3 N           2.5270    1.2984   23.4325 N.pl3   1  UNL1       -0.2763
      4 C           3.3770    2.4301   22.9357 C.3     1  UNL1        0.1107
      5 C           4.3594    2.1992   21.8259 C.3     1  UNL1        0.0906
      6 N           4.4917    0.8366   21.2128 N.3     1  UNL1       -0.2922
      7 H           5.4632    0.5513   21.3362 H       1  UNL1        0.1236
      8 C           1.5447    1.5293   24.5423 C.ar    1  UNL1        0.2035
      9 N           1.9157    1.1888   25.9552 N.ar    1  UNL1       -0.2148
     10 C           0.9334    1.4197   27.0650 C.ar    1  UNL1        0.0890
     11 C          -0.4200    1.9911   26.7619 C.ar    1  UNL1        0.0800
     12 C          -0.7911    2.3316   25.3489 C.ar    1  UNL1        0.2645
     13 O          -2.1445    2.9029   25.0458 O.2     1  UNL1       -0.2668
     14 N           0.1913    2.1007   24.2391 N.ar    1  UNL1       -0.2667
     15 C          -0.1798    2.4411   22.8262 C.3     1  UNL1        0.1363
     16 C           1.3045    1.0793   28.4780 C.ar    1  UNL1        0.0210
     17 C           2.0316   -0.1985   28.7754 C.ar    1  UNL1        0.0222
     18 C           2.4027   -0.5389   30.1883 C.ar    1  UNL1        0.0989
     19 N           2.0466    0.3985   31.3039 N.ar    1  UNL1       -0.2423
     20 C           1.3195    1.6763   31.0065 C.ar    1  UNL1        0.0989
     21 C           0.9484    2.0167   29.5936 C.ar    1  UNL1        0.0222
     22 C           3.4037   -1.8726   19.6590 C.ar    1  UNL1        0.1382
     23 C           3.5360   -3.2352   19.0460 C.ar    1  UNL1        0.0662
     24 C           4.0387   -4.3829   19.8706 C.ar    1  UNL1        0.1431
     25 F           4.1711   -5.7456   19.2576 F       1  UNL1       -0.2041
     26 C           4.4091   -4.1681   21.3082 C.ar    1  UNL1        0.0296
     27 C           4.2767   -2.8055   21.9212 C.ar    1  UNL1        0.0024
     28 C           3.7740   -1.6577   21.0966 C.ar    1  UNL1        0.0278
     29 C           3.5365   -0.4171   17.5110 C.3     1  UNL1        0.2525
     30 O           2.9010   -0.7248   18.8344 O.3     1  UNL1       -0.4716
@<TRIPOS>BOND
     1    29    30    1
     2    30    22    1
     3    22    23   ar
     4    23    24   ar
     5    24    25    1
     6    24    26   ar
     7    26    27   ar
     8    27    28   ar
     9    28     1    1
    10     1     2    1
    11     2     3    1
    12     3     8    1
    13     8     9   ar
    14     9    10   ar
    15    10    16    1
    16    16    17   ar
    17    17    18   ar
    18    18    19   ar
    19    19    20   ar
    20    20    21   ar
    21    10    11   ar
    22    11    12   ar
    23    12    13    2
    24    12    14   ar
    25    14    15    1
    26     3     4    1
    27     4     5    1
    28     5     6    1
    29    28    22   ar
    30     6     1    1
    31    14     8   ar
    32    21    16   ar
    33     6     7    1
@<TRIPOS>MOLECULE
*****
 30 33 0 0 0
SMALL
GASTEIGER

@<TRIPOS>ATOM
      1 C           4.1013   -0.7071   23.3332 C.3     1  UNL1        0.0999
      2 C           2.8878   -0.3776   24.1510 C.3     1  UNL1        0.1138
      3 N           2.9945    0.5837   25.2975 N.pl3   1  UNL1       -0.2763
      4 C           4.3146    1.2155   25.6262 C.3     1  UNL1        0.1107
      5 C           5.5281    0.8860   24.8084 C.3     1  UNL1        0.0906
      6 N           5.4214   -0.0753   23.6618 N.3     1  UNL1       -0.2922
      7 H           6.0724   -0.8367   23.8544 H       1  UNL1        0.1236
      8 C           1.7810    0.9133   26.1153 C.ar    1  UNL1        0.2035
      9 N           0.7001    1.7786   25.5385 N.ar    1  UNL1       -0.2148
     10 C          -0.5134    2.1082   26.3563 C.ar    1  UNL1        0.0890
     11 C          -0.6460    1.5723   27.7510 C.ar    1  UNL1        0.0800
     12 C           0.4349    0.7069   28.3279 C.ar    1  UNL1        0.2645
     13 O           0.3022    0.1710   29.7226 O.2     1  UNL1       -0.2668
     14 N           1.6484    0.3773   27.5101 N.ar    1  UNL1       -0.2667
     15 C           2.7292   -0.4880   28.0870 C.3     1  UNL1        0.1363
     16 C          -1.5943    2.9736   25.7794 C.ar    1  UNL1        0.0210
     17 C          -2.7188    3.4497   26.6503 C.ar    1  UNL1        0.0222
     18 C          -3.7996    4.3151   26.0734 C.ar    1  UNL1        0.0989
     19 N          -3.7559    4.7044   24.6255 N.ar    1  UNL1       -0.2423
     20 C          -2.6313    4.2283   23.7545 C.ar    1  UNL1        0.0989
     21 C          -1.5505    3.3629   24.3314 C.ar    1  UNL1        0.0222
     22 C           4.6206   -3.0278   22.2869 C.ar    1  UNL1        0.1382
     23 C           4.5139   -3.9891   21.1404 C.ar    1  UNL1        0.0662
     24 C           3.7811   -3.5910   19.8936 C.ar    1  UNL1        0.1431
     25 F           3.6744   -4.5523   18.7470 F       1  UNL1       -0.2041
     26 C           3.1551   -2.2316   19.7933 C.ar    1  UNL1        0.0296
     27 C           3.2618   -1.2703   20.9398 C.ar    1  UNL1        0.0024
     28 C           3.9946   -1.6684   22.1866 C.ar    1  UNL1        0.0278
     29 C           6.6507   -4.1724   23.4353 C.3     1  UNL1        0.2525
     30 O           5.3534   -3.4260   23.5337 O.3     1  UNL1       -0.4716
@<TRIPOS>BOND
     1    29    30    1
     2    30    22    1
     3    22    23   ar
     4    23    24   ar
     5    24    25    1
     6    24    26   ar
     7    26    27   ar
     8    27    28   ar
     9    28     1    1
    10     1     2    1
    11     2     3    1
    12     3     8    1
    13     8     9   ar
    14     9    10   ar
    15    10    16    1
    16    16    17   ar
    17    17    18   ar
    18    18    19   ar
    19    19    20   ar
    20    20    21   ar
    21    10    11   ar
    22    11    12   ar
    23    12    13    2
    24    12    14   ar
    25    14    15    1
    26     3     4    1
    27     4     5    1
    28     5     6    1
    29    28    22   ar
    30     6     1    1
    31    14     8   ar
    32    21    16   ar
    33     6     7    1
@<TRIPOS>MOLECULE
*****
 30 33 0 0 0
SMALL
GASTEIGER

@<TRIPOS>ATOM
      1 C           3.4064   -0.3025   22.3629 C.3     1  UNL1        0.0999
      2 C           2.8752   -0.4235   23.7604 C.3     1  UNL1        0.1138
      3 N           2.6639    0.8070   24.5917 N.pl3   1  UNL1       -0.2763
      4 C           2.9839    2.1587   24.0254 C.3     1  UNL1        0.1107
      5 C           3.5151    2.2797   22.6278 C.3     1  UNL1        0.0906
      6 N           3.7264    1.0491   21.7966 N.3     1  UNL1       -0.2922
      7 H           4.7130    1.0340   21.5383 H       1  UNL1        0.1236
      8 C           2.1326    0.6860   25.9892 C.ar    1  UNL1        0.2035
      9 N           3.0148    0.1640   27.0843 N.ar    1  UNL1       -0.2148
     10 C           2.4835    0.0430   28.4819 C.ar    1  UNL1        0.0890
     11 C           1.0701    0.4440   28.7843 C.ar    1  UNL1        0.0800
     12 C           0.1879    0.9661   27.6892 C.ar    1  UNL1        0.2645
     13 O          -1.2254    1.3671   27.9916 O.2     1  UNL1       -0.2668
     14 N           0.7192    1.0871   26.2916 N.ar    1  UNL1       -0.2667
     15 C          -0.1629    1.6092   25.1965 C.3     1  UNL1        0.1363
     16 C           3.3657   -0.4791   29.5770 C.ar    1  UNL1        0.0210
     17 C           2.8710   -0.5000   30.9929 C.ar    1  UNL1        0.0222
     18 C           3.7532   -1.0220   32.0879 C.ar    1  UNL1        0.0989
     19 N           5.1301   -1.5233   31.7670 N.ar    1  UNL1       -0.2423
     20 C           5.6248   -1.5025   30.3511 C.ar    1  UNL1        0.0989
     21 C           4.7426   -0.9804   29.2561 C.ar    1  UNL1        0.0222
     22 C           3.1165   -1.5790   20.1186 C.ar    1  UNL1        0.1382
     23 C           3.3278   -2.8096   19.2875 C.ar    1  UNL1        0.0662
     24 C           4.0403   -3.9945   19.8694 C.ar    1  UNL1        0.1431
     25 F           4.2515   -5.2251   19.0381 F       1  UNL1       -0.2041
     26 C           4.5414   -3.9487   21.2824 C.ar    1  UNL1        0.0296
     27 C           4.3302   -2.7180   22.1135 C.ar    1  UNL1        0.0024
     28 C           3.6177   -1.5332   21.5317 C.ar    1  UNL1        0.0278
     29 C           2.7913    0.1235   18.1833 C.3     1  UNL1        0.2525
     30 O           2.4040   -0.3942   19.5368 O.3     1  UNL1       -0.4716
@<TRIPOS>BOND
     1    29    30    1
     2    30    22    1
     3    22    23   ar
     4    23    24   ar
     5    24    25    1
     6    24    26   ar
     7    26    27   ar
     8    27    28   ar
     9    28     1    1
    10     1     2    1
    11     2     3    1
    12     3     8    1
    13     8     9   ar
    14     9    10   ar
    15    10    16    1
    16    16    17   ar
    17    17    18   ar
    18    18    19   ar
    19    19    20   ar
    20    20    21   ar
    21    10    11   ar
    22    11    12   ar
    23    12    13    2
    24    12    14   ar
    25    14    15    1
    26     3     4    1
    27     4     5    1
    28     5     6    1
    29    28    22   ar
    30     6     1    1
    31    14     8   ar
    32    21    16   ar
    33     6     7    1
@<TRIPOS>MOLECULE
*****
 30 33 0 0 0
SMALL
GASTEIGER

@<TRIPOS>ATOM
      1 C           3.8129   -0.2545   23.0976 C.3     1  UNL1        0.0999
      2 C           2.6255   -0.0461   23.9902 C.3     1  UNL1        0.1138
      3 N           2.6068    1.0997   24.9580 N.pl3   1  UNL1       -0.2763
      4 C           3.7754    2.0371   25.0334 C.3     1  UNL1        0.1107
      5 C           4.9628    1.8286   24.1408 C.3     1  UNL1        0.0906
      6 N           4.9816    0.6828   23.1729 N.3     1  UNL1       -0.2922
      7 H           5.7986    0.1169   23.4023 H       1  UNL1        0.1236
      8 C           1.4194    1.3081   25.8506 C.ar    1  UNL1        0.2035
      9 N           0.2515    2.1167   25.3686 N.ar    1  UNL1       -0.2148
     10 C          -0.9359    2.3251   26.2611 C.ar    1  UNL1        0.0890
     11 C          -0.9554    1.7250   27.6357 C.ar    1  UNL1        0.0800
     12 C           0.2124    0.9164   28.1177 C.ar    1  UNL1        0.2645
     13 O           0.1929    0.3163   29.4923 O.2     1  UNL1       -0.2668
     14 N           1.3998    0.7080   27.2252 N.ar    1  UNL1       -0.2667
     15 C           2.5677   -0.1006   27.7072 C.3     1  UNL1        0.1363
     16 C          -2.1037    3.1337   25.7790 C.ar    1  UNL1        0.0210
     17 C          -2.2090    3.5095   24.3307 C.ar    1  UNL1        0.0222
     18 C          -3.3768    4.3181   23.8487 C.ar    1  UNL1        0.0989
     19 N          -4.4394    4.7508   24.8150 N.ar    1  UNL1       -0.2423
     20 C          -4.3341    4.3750   26.2634 C.ar    1  UNL1        0.0989
     21 C          -3.1662    3.5665   26.7454 C.ar    1  UNL1        0.0222
     22 C           3.1357   -1.2761   20.8068 C.ar    1  UNL1        0.1382
     23 C           3.1545   -2.4219   19.8390 C.ar    1  UNL1        0.0662
     24 C           3.8692   -3.6920   20.1941 C.ar    1  UNL1        0.1431
     25 F           3.8880   -4.8379   19.2262 F       1  UNL1       -0.2041
     26 C           4.5652   -3.8163   21.5170 C.ar    1  UNL1        0.0296
     27 C           4.5464   -2.6704   22.4848 C.ar    1  UNL1        0.0024
     28 C           3.8317   -1.4004   22.1297 C.ar    1  UNL1        0.0278
     29 C           0.9728   -0.0440   20.0629 C.3     1  UNL1        0.2525
     30 O           2.4210   -0.0061   20.4517 O.3     1  UNL1       -0.4716
@<TRIPOS>BOND
     1    29    30    1
     2    30    22    1
     3    22    23   ar
     4    23    24   ar
     5    24    25    1
     6    24    26   ar
     7    26    27   ar
     8    27    28   ar
     9    28     1    1
    10     1     2    1
    11     2     3    1
    12     3     8    1
    13     8     9   ar
    14     9    10   ar
    15    10    16    1
    16    16    17   ar
    17    17    18   ar
    18    18    19   ar
    19    19    20   ar
    20    20    21   ar
    21    10    11   ar
    22    11    12   ar
    23    12    13    2
    24    12    14   ar
    25    14    15    1
    26     3     4    1
    27     4     5    1
    28     5     6    1
    29    28    22   ar
    30     6     1    1
    31    14     8   ar
    32    21    16   ar
    33     6     7    1
@<TRIPOS>MOLECULE
*****
 30 33 0 0 0
SMALL
GASTEIGER

@<TRIPOS>ATOM
      1 C           3.2282    0.5124   21.7023 C.3     1  UNL1        0.0999
      2 C           2.2538    0.5507   22.8421 C.3     1  UNL1        0.1138
      3 N           2.0088    1.8354   23.5765 N.pl3   1  UNL1       -0.2763
      4 C           2.7381    3.0819   23.1712 C.3     1  UNL1        0.1107
      5 C           3.7125    3.0436   22.0314 C.3     1  UNL1        0.0906
      6 N           3.9575    1.7588   21.2969 N.3     1  UNL1       -0.2922
      7 H           4.9539    1.5573   21.3805 H       1  UNL1        0.1236
      8 C           1.0344    1.8737   24.7163 C.ar    1  UNL1        0.2035
      9 N          -0.2886    2.5604   24.5492 N.ar    1  UNL1       -0.2148
     10 C          -1.2630    2.5986   25.6890 C.ar    1  UNL1        0.0890
     11 C          -0.9144    1.9502   26.9959 C.ar    1  UNL1        0.0800
     12 C           0.4087    1.2635   27.1630 C.ar    1  UNL1        0.2645
     13 O           0.7574    0.6150   28.4699 O.2     1  UNL1       -0.2668
     14 N           1.3831    1.2252   26.0232 N.ar    1  UNL1       -0.2667
     15 C           2.7062    0.5385   26.1903 C.3     1  UNL1        0.1363
     16 C          -2.5861    3.2854   25.5219 C.ar    1  UNL1        0.0210
     17 C          -3.3014    3.8369   26.7194 C.ar    1  UNL1        0.0222
     18 C          -4.6245    4.5236   26.5523 C.ar    1  UNL1        0.0989
     19 N          -5.2322    4.6588   25.1876 N.ar    1  UNL1       -0.2423
     20 C          -4.5169    4.1073   23.9900 C.ar    1  UNL1        0.0989
     21 C          -3.1938    3.4206   24.1572 C.ar    1  UNL1        0.0222
     22 C           3.2775   -0.8361   19.4821 C.ar    1  UNL1        0.1382
     23 C           3.5225   -2.1208   18.7477 C.ar    1  UNL1        0.0662
     24 C           3.9631   -3.3420   19.4992 C.ar    1  UNL1        0.1431
     25 F           4.2081   -4.6268   18.7648 F       1  UNL1       -0.2041
     26 C           4.1588   -3.2783   20.9850 C.ar    1  UNL1        0.0296
     27 C           3.9138   -1.9936   21.7193 C.ar    1  UNL1        0.0024
     28 C           3.4732   -0.7724   20.9679 C.ar    1  UNL1        0.0278
     29 C           1.3756    0.6476   18.5170 C.3     1  UNL1        0.2525
     30 O           2.8369    0.3851   18.7306 O.3     1  UNL1       -0.4716
@<TRIPOS>BOND
     1    29    30    1
     2    30    22    1
     3    22    23   ar
     4    23    24   ar
     5    24    25    1
     6    24    26   ar
     7    26    27   ar
     8    27    28   ar
     9    28     1    1
    10     1     2    1
    11     2     3    1
    12     3     8    1
    13     8     9   ar
    14     9    10   ar
    15    10    16    1
    16    16    17   ar
    17    17    18   ar
    18    18    19   ar
    19    19    20   ar
    20    20    21   ar
    21    10    11   ar
    22    11    12   ar
    23    12    13    2
    24    12    14   ar
    25    14    15    1
    26     3     4    1
    27     4     5    1
    28     5     6    1
    29    28    22   ar
    30     6     1    1
    31    14     8   ar
    32    21    16   ar
    33     6     7    1
@<TRIPOS>MOLECULE
*****
 30 33 0 0 0
SMALL
GASTEIGER

@<TRIPOS>ATOM
      1 C           6.6043   -1.9846   28.8645 C.3     1  UNL1        0.0999
      2 C           5.7808   -2.1024   27.6163 C.3     1  UNL1        0.1138
      3 N           6.4389   -2.0081   26.2718 N.pl3   1  UNL1       -0.2763
      4 C           7.9208   -1.7960   26.1753 C.3     1  UNL1        0.1107
      5 C           8.7444   -1.6781   27.4234 C.3     1  UNL1        0.0906
      6 N           8.0861   -1.7725   28.7680 N.3     1  UNL1       -0.2922
      7 H           8.2914   -0.9018   29.2581 H       1  UNL1        0.1236
      8 C           5.6154   -2.1260   25.0236 C.ar    1  UNL1        0.2035
      9 N           4.5397   -1.1206   24.7371 N.ar    1  UNL1       -0.2148
     10 C           3.7161   -1.2384   23.4890 C.ar    1  UNL1        0.0890
     11 C           3.9682   -2.3616   22.5274 C.ar    1  UNL1        0.0800
     12 C           5.0439   -3.3671   22.8138 C.ar    1  UNL1        0.2645
     13 O           5.2960   -4.4903   21.8522 O.2     1  UNL1       -0.2668
     14 N           5.8675   -3.2492   24.0620 N.ar    1  UNL1       -0.2667
     15 C           6.9432   -4.2546   24.3485 C.3     1  UNL1        0.1363
     16 C           2.6404   -0.2329   23.2025 C.ar    1  UNL1        0.0210
     17 C           2.2025    0.0148   21.7895 C.ar    1  UNL1        0.0222
     18 C           1.1268    1.0202   21.5031 C.ar    1  UNL1        0.0989
     19 N           0.4891    1.7779   22.6297 N.ar    1  UNL1       -0.2423
     20 C           0.9271    1.5301   24.0428 C.ar    1  UNL1        0.0989
     21 C           2.0028    0.5247   24.3292 C.ar    1  UNL1        0.0222
     22 C           6.3539   -3.1562   31.1698 C.ar    1  UNL1        0.1382
     23 C           5.6956   -3.2504   32.5144 C.ar    1  UNL1        0.0662
     24 C           4.6295   -2.2674   32.8981 C.ar    1  UNL1        0.1431
     25 F           3.9713   -2.3617   34.2427 F       1  UNL1       -0.2041
     26 C           4.2217   -1.1902   31.9373 C.ar    1  UNL1        0.0296
     27 C           4.8800   -1.0959   30.5928 C.ar    1  UNL1        0.0024
     28 C           5.9461   -2.0789   30.2091 C.ar    1  UNL1        0.0278
     29 C           7.0465   -5.5435   30.4142 C.3     1  UNL1        0.2525
     30 O           7.4199   -4.1391   30.7861 O.3     1  UNL1       -0.4716
@<TRIPOS>BOND
     1    29    30    1
     2    30    22    1
     3    22    23   ar
     4    23    24   ar
     5    24    25    1
     6    24    26   ar
     7    26    27   ar
     8    27    28   ar
     9    28     1    1
    10     1     2    1
    11     2     3    1
    12     3     8    1
    13     8     9   ar
    14     9    10   ar
    15    10    16    1
    16    16    17   ar
    17    17    18   ar
    18    18    19   ar
    19    19    20   ar
    20    20    21   ar
    21    10    11   ar
    22    11    12   ar
    23    12    13    2
    24    12    14   ar
    25    14    15    1
    26     3     4    1
    27     4     5    1
    28     5     6    1
    29    28    22   ar
    30     6     1    1
    31    14     8   ar
    32    21    16   ar
    33     6     7    1
