@<TRIPOS>MOLECULE
*****
 29 32 0 0 0
SMALL
GASTEIGER

@<TRIPOS>ATOM
      1 C          -6.6454  -18.5269   22.1632 C.2     1  UNL1        0.2463
      2 O          -7.3554  -19.7462   22.6725 O.2     1  UNL1       -0.2701
      3 N          -7.2398  -17.1671   22.3811 N.am    1  UNL1       -0.2951
      4 H          -6.7738  -16.3669   22.0469 H       1  UNL1        0.1503
      5 N           0.8136  -17.3710   20.0069 N.pl3   1  UNL1       -0.3375
      6 C          -0.6110  -17.7931   20.2130 C.ar    1  UNL1        0.1567
      7 N          -1.3340  -18.8604   19.4461 N.ar    1  UNL1       -0.2245
      8 C          -2.7325  -18.9490   19.9813 C.ar    1  UNL1        0.0892
      9 C          -3.8955  -19.8209   19.6110 C.ar    1  UNL1        0.0198
     10 C          -5.1998  -19.6802   20.3383 C.ar    1  UNL1        0.0061
     11 C          -5.3411  -18.6676   21.4359 C.ar    1  UNL1        0.0540
     12 C          -4.1780  -17.7958   21.8062 C.ar    1  UNL1        0.0126
     13 C          -2.8738  -17.9365   21.0789 C.ar    1  UNL1        0.0498
     14 S          -1.5626  -17.2221   21.2221 S.2     1  UNL1       -0.0520
     15 H           1.3614  -17.8080   19.3153 H       1  UNL1        0.1442
     16 H           1.2008  -16.6569   20.5631 H       1  UNL1        0.1442
     17 C          -8.5441  -17.0264   23.1084 C.3     1  UNL1        0.1171
     18 C          -9.8375  -17.1293   22.3557 C.ar    1  UNL1       -0.0003
     19 C          -9.9390  -18.0271   21.1583 C.ar    1  UNL1       -0.0024
     20 C         -11.2323  -18.1300   20.4056 C.ar    1  UNL1       -0.0003
     21 C         -12.4242  -17.3350   20.8502 C.ar    1  UNL1       -0.0000
     22 C         -12.3227  -16.4373   22.0475 C.ar    1  UNL1       -0.0003
     23 C         -11.0292  -16.3344   22.8003 C.ar    1  UNL1       -0.0024
     24 C          -8.5551  -16.7829   24.5885 C.ar    1  UNL1       -0.0003
     25 C          -7.9250  -15.5425   25.1492 C.ar    1  UNL1       -0.0024
     26 C          -7.9360  -15.2989   26.6292 C.ar    1  UNL1       -0.0003
     27 C          -8.5770  -16.2958   27.5486 C.ar    1  UNL1       -0.0000
     28 C          -9.2071  -17.5362   26.9880 C.ar    1  UNL1       -0.0003
     29 C          -9.1962  -17.7798   25.5079 C.ar    1  UNL1       -0.0024
@<TRIPOS>BOND
     1     5     6    1
     2     6     7   ar
     3     7     8   ar
     4     8     9   ar
     5     9    10   ar
     6    10    11   ar
     7    11     1    1
     8     1     2    2
     9     1     3   am
    10     3    17    1
    11    17    18    1
    12    18    19   ar
    13    19    20   ar
    14    20    21   ar
    15    21    22   ar
    16    22    23   ar
    17    17    24    1
    18    24    25   ar
    19    25    26   ar
    20    26    27   ar
    21    27    28   ar
    22    28    29   ar
    23    11    12   ar
    24    12    13   ar
    25    13    14   ar
    26    14     6   ar
    27    13     8   ar
    28    23    18   ar
    29    29    24   ar
    30     5    15    1
    31     5    16    1
    32     3     4    1
@<TRIPOS>MOLECULE
*****
 29 32 0 0 0
SMALL
GASTEIGER

@<TRIPOS>ATOM
      1 C          -6.6321  -18.5371   22.1624 C.2     1  UNL1        0.2463
      2 O          -7.3436  -19.7569   22.6683 O.2     1  UNL1       -0.2701
      3 N          -7.2256  -17.1773   22.3827 N.am    1  UNL1       -0.2951
      4 H          -6.7586  -16.3767   22.0507 H       1  UNL1        0.1503
      5 N           0.8243  -17.3687   20.0036 N.pl3   1  UNL1       -0.3375
      6 C          -0.5991  -17.7942   20.2111 C.ar    1  UNL1        0.1567
      7 N          -1.3186  -18.8671   19.4489 N.ar    1  UNL1       -0.2245
      8 C          -2.7171  -18.9575   19.9840 C.ar    1  UNL1        0.0892
      9 C          -3.8773  -19.8345   19.6172 C.ar    1  UNL1        0.0198
     10 C          -5.1823  -19.6944   20.3433 C.ar    1  UNL1        0.0061
     11 C          -5.3270  -18.6772   21.4363 C.ar    1  UNL1        0.0540
     12 C          -4.1667  -17.8002   21.8031 C.ar    1  UNL1        0.0126
     13 C          -2.8618  -17.9403   21.0769 C.ar    1  UNL1        0.0498
     14 S          -1.5528  -17.2214   21.2173 S.2     1  UNL1       -0.0520
     15 H           1.3736  -17.8073   19.3143 H       1  UNL1        0.1442
     16 H           1.2091  -16.6510   20.5568 H       1  UNL1        0.1442
     17 C          -8.5306  -17.0372   23.1089 C.3     1  UNL1        0.1171
     18 C          -8.5430  -16.7929   24.5888 C.ar    1  UNL1       -0.0003
     19 C          -7.8954  -15.5624   25.1513 C.ar    1  UNL1       -0.0024
     20 C          -7.9078  -15.3181   26.6312 C.ar    1  UNL1       -0.0003
     21 C          -8.5678  -16.3044   27.5487 C.ar    1  UNL1       -0.0000
     22 C          -9.2154  -17.5349   26.9862 C.ar    1  UNL1       -0.0003
     23 C          -9.2030  -17.7792   25.5062 C.ar    1  UNL1       -0.0024
     24 C          -9.8233  -17.1414   22.3551 C.ar    1  UNL1       -0.0003
     25 C         -11.0128  -16.3385   22.7914 C.ar    1  UNL1       -0.0024
     26 C         -12.3054  -16.4427   22.0376 C.ar    1  UNL1       -0.0003
     27 C         -12.4086  -17.3498   20.8475 C.ar    1  UNL1       -0.0000
     28 C         -11.2190  -18.1528   20.4111 C.ar    1  UNL1       -0.0003
     29 C          -9.9264  -18.0486   21.1649 C.ar    1  UNL1       -0.0024
@<TRIPOS>BOND
     1     5     6    1
     2     6     7   ar
     3     7     8   ar
     4     8     9   ar
     5     9    10   ar
     6    10    11   ar
     7    11     1    1
     8     1     2    2
     9     1     3   am
    10     3    17    1
    11    17    18    1
    12    18    19   ar
    13    19    20   ar
    14    20    21   ar
    15    21    22   ar
    16    22    23   ar
    17    17    24    1
    18    24    25   ar
    19    25    26   ar
    20    26    27   ar
    21    27    28   ar
    22    28    29   ar
    23    11    12   ar
    24    12    13   ar
    25    13    14   ar
    26    14     6   ar
    27    13     8   ar
    28    23    18   ar
    29    29    24   ar
    30     5    15    1
    31     5    16    1
    32     3     4    1
@<TRIPOS>MOLECULE
*****
 29 32 0 0 0
SMALL
GASTEIGER

@<TRIPOS>ATOM
      1 C         -14.8425   -6.0134   19.0800 C.2     1  UNL1        0.2463
      2 O         -14.2188   -5.7085   20.4097 O.2     1  UNL1       -0.2701
      3 N         -14.1195   -5.6610   17.8140 N.am    1  UNL1       -0.2951
      4 H         -14.5289   -5.8612   16.9413 H       1  UNL1        0.1503
      5 N         -20.4196  -11.4123   17.9091 N.pl3   1  UNL1       -0.3375
      6 C         -19.5727  -10.2128   18.2157 C.ar    1  UNL1        0.1567
      7 N         -20.0673   -8.8907   18.7227 N.ar    1  UNL1       -0.2245
      8 C         -18.8828   -7.9856   18.8895 C.ar    1  UNL1        0.0892
      9 C         -18.7628   -6.5654   19.3570 C.ar    1  UNL1        0.0198
     10 C         -17.4160   -5.9080   19.4205 C.ar    1  UNL1        0.0061
     11 C         -16.1893   -6.6709   19.0165 C.ar    1  UNL1        0.0540
     12 C         -16.3093   -8.0910   18.5490 C.ar    1  UNL1        0.0126
     13 C         -17.6561   -8.7484   18.4855 C.ar    1  UNL1        0.0498
     14 S         -18.0825  -10.1249   18.0690 S.2     1  UNL1       -0.0520
     15 H         -21.3948  -11.3724   18.0381 H       1  UNL1        0.1442
     16 H         -20.0002  -12.2396   17.5788 H       1  UNL1        0.1442
     17 C         -12.7727   -5.0036   17.8775 C.3     1  UNL1        0.1171
     18 C         -12.6468   -3.5275   17.6427 C.ar    1  UNL1       -0.0003
     19 C         -13.1090   -2.5592   18.6909 C.ar    1  UNL1       -0.0024
     20 C         -12.9831   -1.0830   18.4560 C.ar    1  UNL1       -0.0003
     21 C         -12.3950   -0.5752   17.1729 C.ar    1  UNL1       -0.0000
     22 C         -11.9329   -1.5435   16.1247 C.ar    1  UNL1       -0.0003
     23 C         -12.0588   -3.0197   16.3596 C.ar    1  UNL1       -0.0024
     24 C         -11.5518   -5.8223   18.1759 C.ar    1  UNL1       -0.0003
     25 C         -11.4187   -7.2046   17.6088 C.ar    1  UNL1       -0.0024
     26 C         -10.1978   -8.0234   17.9072 C.ar    1  UNL1       -0.0003
     27 C          -9.1100   -7.4599   18.7727 C.ar    1  UNL1       -0.0000
     28 C          -9.2430   -6.0775   19.3398 C.ar    1  UNL1       -0.0003
     29 C         -10.4639   -5.2588   19.0414 C.ar    1  UNL1       -0.0024
@<TRIPOS>BOND
     1     5     6    1
     2     6     7   ar
     3     7     8   ar
     4     8     9   ar
     5     9    10   ar
     6    10    11   ar
     7    11     1    1
     8     1     2    2
     9     1     3   am
    10     3    17    1
    11    17    18    1
    12    18    19   ar
    13    19    20   ar
    14    20    21   ar
    15    21    22   ar
    16    22    23   ar
    17    17    24    1
    18    24    25   ar
    19    25    26   ar
    20    26    27   ar
    21    27    28   ar
    22    28    29   ar
    23    11    12   ar
    24    12    13   ar
    25    13    14   ar
    26    14     6   ar
    27    13     8   ar
    28    23    18   ar
    29    29    24   ar
    30     5    15    1
    31     5    16    1
    32     3     4    1
@<TRIPOS>MOLECULE
*****
 29 32 0 0 0
SMALL
GASTEIGER

@<TRIPOS>ATOM
      1 C         -13.7250   -3.2340   18.9303 C.2     1  UNL1        0.2463
      2 O         -13.7531   -3.7774   20.3281 O.2     1  UNL1       -0.2701
      3 N         -13.5415   -4.1639   17.7677 N.am    1  UNL1       -0.2951
      4 H         -13.5231   -3.8072   16.8503 H       1  UNL1        0.1503
      5 N         -12.3853    4.0495   16.3268 N.pl3   1  UNL1       -0.3375
      6 C         -12.8701    2.7758   16.9532 C.ar    1  UNL1        0.1567
      7 N         -14.0859    2.6260   17.8188 N.ar    1  UNL1       -0.2245
      8 C         -14.1915    1.1858   18.2247 C.ar    1  UNL1        0.0892
      9 C         -15.1867    0.4529   19.0746 C.ar    1  UNL1        0.0198
     10 C         -15.0312   -1.0204   19.3098 C.ar    1  UNL1        0.0061
     11 C         -13.8805   -1.7607   18.6951 C.ar    1  UNL1        0.0540
     12 C         -12.8853   -1.0278   17.8452 C.ar    1  UNL1        0.0126
     13 C         -13.0408    0.4455   17.6100 C.ar    1  UNL1        0.0498
     14 S         -12.2242    1.4281   16.8242 S.2     1  UNL1       -0.0520
     15 H         -12.8802    4.8883   16.4706 H       1  UNL1        0.1442
     16 H         -11.5721    4.0467   15.7717 H       1  UNL1        0.1442
     17 C         -13.3861   -5.6372   18.0029 C.3     1  UNL1        0.1171
     18 C         -12.0192   -6.2276   18.1840 C.ar    1  UNL1       -0.0003
     19 C         -10.9959   -5.5098   19.0133 C.ar    1  UNL1       -0.0024
     20 C          -9.6290   -6.1003   19.1944 C.ar    1  UNL1       -0.0003
     21 C          -9.2853   -7.4086   18.5462 C.ar    1  UNL1       -0.0000
     22 C         -10.3085   -8.1265   17.7169 C.ar    1  UNL1       -0.0003
     23 C         -11.6755   -7.5359   17.5358 C.ar    1  UNL1       -0.0024
     24 C         -14.5976   -6.5200   18.0570 C.ar    1  UNL1       -0.0003
     25 C         -15.1912   -6.8986   19.3815 C.ar    1  UNL1       -0.0024
     26 C         -16.4027   -7.7814   19.4356 C.ar    1  UNL1       -0.0003
     27 C         -17.0206   -8.2855   18.1652 C.ar    1  UNL1       -0.0000
     28 C         -16.4271   -7.9069   16.8407 C.ar    1  UNL1       -0.0003
     29 C         -15.2156   -7.0241   16.7866 C.ar    1  UNL1       -0.0024
@<TRIPOS>BOND
     1     5     6    1
     2     6     7   ar
     3     7     8   ar
     4     8     9   ar
     5     9    10   ar
     6    10    11   ar
     7    11     1    1
     8     1     2    2
     9     1     3   am
    10     3    17    1
    11    17    18    1
    12    18    19   ar
    13    19    20   ar
    14    20    21   ar
    15    21    22   ar
    16    22    23   ar
    17    17    24    1
    18    24    25   ar
    19    25    26   ar
    20    26    27   ar
    21    27    28   ar
    22    28    29   ar
    23    11    12   ar
    24    12    13   ar
    25    13    14   ar
    26    14     6   ar
    27    13     8   ar
    28    23    18   ar
    29    29    24   ar
    30     5    15    1
    31     5    16    1
    32     3     4    1
@<TRIPOS>MOLECULE
*****
 29 32 0 0 0
SMALL
GASTEIGER

@<TRIPOS>ATOM
      1 C         -13.9793   -3.2777   19.0993 C.2     1  UNL1        0.2463
      2 O         -13.4872   -3.7678   20.4288 O.2     1  UNL1       -0.2701
      3 N         -14.3802   -4.2604   18.0393 N.am    1  UNL1       -0.2951
      4 H         -14.7033   -3.9387   17.1667 H       1  UNL1        0.1503
      5 N         -12.3540    3.8687   16.2867 N.pl3   1  UNL1       -0.3375
      6 C         -12.8850    2.6349   16.9545 C.ar    1  UNL1        0.1567
      7 N         -14.0887    2.5638   17.8466 N.ar    1  UNL1       -0.2245
      8 C         -14.2531    1.1406   18.2909 C.ar    1  UNL1        0.0892
      9 C         -15.2640    0.4764   19.1779 C.ar    1  UNL1        0.0198
     10 C         -15.1727   -0.9963   19.4474 C.ar    1  UNL1        0.0061
     11 C         -14.0706   -1.8049   18.8298 C.ar    1  UNL1        0.0540
     12 C         -13.0597   -1.1408   17.9427 C.ar    1  UNL1        0.0126
     13 C         -13.1510    0.3320   17.6732 C.ar    1  UNL1        0.0498
     14 S         -12.3054    1.2555   16.8473 S.2     1  UNL1       -0.0520
     15 H         -12.8062    4.7331   16.4187 H       1  UNL1        0.1442
     16 H         -11.5533    3.8139   15.7165 H       1  UNL1        0.1442
     17 C         -14.2890   -5.7332   18.3088 C.3     1  UNL1        0.1171
     18 C         -15.4687   -6.4666   18.8750 C.ar    1  UNL1       -0.0003
     19 C         -16.7718   -5.7508   19.0738 C.ar    1  UNL1       -0.0024
     20 C         -17.9515   -6.4842   19.6400 C.ar    1  UNL1       -0.0003
     21 C         -17.8280   -7.9333   20.0073 C.ar    1  UNL1       -0.0000
     22 C         -16.5249   -8.6490   19.8085 C.ar    1  UNL1       -0.0003
     23 C         -15.3452   -7.9156   19.2423 C.ar    1  UNL1       -0.0024
     24 C         -13.0181   -6.4726   18.0121 C.ar    1  UNL1       -0.0003
     25 C         -11.9011   -6.4760   19.0133 C.ar    1  UNL1       -0.0024
     26 C         -10.6302   -7.2154   18.7166 C.ar    1  UNL1       -0.0003
     27 C         -10.4762   -7.9514   17.4187 C.ar    1  UNL1       -0.0000
     28 C         -11.5932   -7.9481   16.4175 C.ar    1  UNL1       -0.0003
     29 C         -12.8641   -7.2087   16.7142 C.ar    1  UNL1       -0.0024
@<TRIPOS>BOND
     1     5     6    1
     2     6     7   ar
     3     7     8   ar
     4     8     9   ar
     5     9    10   ar
     6    10    11   ar
     7    11     1    1
     8     1     2    2
     9     1     3   am
    10     3    17    1
    11    17    18    1
    12    18    19   ar
    13    19    20   ar
    14    20    21   ar
    15    21    22   ar
    16    22    23   ar
    17    17    24    1
    18    24    25   ar
    19    25    26   ar
    20    26    27   ar
    21    27    28   ar
    22    28    29   ar
    23    11    12   ar
    24    12    13   ar
    25    13    14   ar
    26    14     6   ar
    27    13     8   ar
    28    23    18   ar
    29    29    24   ar
    30     5    15    1
    31     5    16    1
    32     3     4    1
@<TRIPOS>MOLECULE
*****
 29 32 0 0 0
SMALL
GASTEIGER

@<TRIPOS>ATOM
      1 C         -13.7365   -3.2247   19.1089 C.2     1  UNL1        0.2463
      2 O         -13.7760   -3.8351   20.4786 O.2     1  UNL1       -0.2701
      3 N         -13.5518   -4.0982   17.9036 N.am    1  UNL1       -0.2951
      4 H         -13.5259   -3.6976   17.0047 H       1  UNL1        0.1503
      5 N         -16.8349    3.9873   19.2134 N.pl3   1  UNL1       -0.3375
      6 C         -16.0102    2.7408   19.0862 C.ar    1  UNL1        0.1567
      7 N         -14.6050    2.6623   18.5674 N.ar    1  UNL1       -0.2245
      8 C         -14.1723    1.2269   18.6160 C.ar    1  UNL1        0.0892
      9 C         -12.8892    0.5518   18.2314 C.ar    1  UNL1        0.0198
     10 C         -12.7440   -0.9320   18.3957 C.ar    1  UNL1        0.0061
     11 C         -13.8818   -1.7408   18.9446 C.ar    1  UNL1        0.0540
     12 C         -15.1649   -1.0657   19.3292 C.ar    1  UNL1        0.0126
     13 C         -15.3101    0.4182   19.1649 C.ar    1  UNL1        0.0498
     14 S         -16.4460    1.3538   19.4555 S.2     1  UNL1       -0.0520
     15 H         -16.4587    4.8560   18.9431 H       1  UNL1        0.1442
     16 H         -17.7522    3.9366   19.5671 H       1  UNL1        0.1442
     17 C         -13.4065   -5.5822   18.0679 C.3     1  UNL1        0.1171
     18 C         -14.6246   -6.4571   18.0897 C.ar    1  UNL1       -0.0003
     19 C         -15.2871   -6.8528   16.8034 C.ar    1  UNL1       -0.0024
     20 C         -16.5052   -7.7278   16.8252 C.ar    1  UNL1       -0.0003
     21 C         -17.0610   -8.2072   18.1335 C.ar    1  UNL1       -0.0000
     22 C         -16.3986   -7.8115   19.4198 C.ar    1  UNL1       -0.0003
     23 C         -15.1804   -6.9364   19.3979 C.ar    1  UNL1       -0.0024
     24 C         -12.0431   -6.1910   18.2103 C.ar    1  UNL1       -0.0003
     25 C         -11.7270   -7.4901   17.5304 C.ar    1  UNL1       -0.0024
     26 C         -10.3636   -8.0990   17.6728 C.ar    1  UNL1       -0.0003
     27 C          -9.3162   -7.4087   18.4952 C.ar    1  UNL1       -0.0000
     28 C          -9.6322   -6.1096   19.1753 C.ar    1  UNL1       -0.0003
     29 C         -10.9956   -5.5007   19.0328 C.ar    1  UNL1       -0.0024
@<TRIPOS>BOND
     1     5     6    1
     2     6     7   ar
     3     7     8   ar
     4     8     9   ar
     5     9    10   ar
     6    10    11   ar
     7    11     1    1
     8     1     2    2
     9     1     3   am
    10     3    17    1
    11    17    18    1
    12    18    19   ar
    13    19    20   ar
    14    20    21   ar
    15    21    22   ar
    16    22    23   ar
    17    17    24    1
    18    24    25   ar
    19    25    26   ar
    20    26    27   ar
    21    27    28   ar
    22    28    29   ar
    23    11    12   ar
    24    12    13   ar
    25    13    14   ar
    26    14     6   ar
    27    13     8   ar
    28    23    18   ar
    29    29    24   ar
    30     5    15    1
    31     5    16    1
    32     3     4    1
@<TRIPOS>MOLECULE
*****
 29 32 0 0 0
SMALL
GASTEIGER

@<TRIPOS>ATOM
      1 C         -15.3168   -5.2456   17.9018 C.2     1  UNL1        0.2463
      2 O         -15.0075   -5.0369   16.4490 O.2     1  UNL1       -0.2701
      3 N         -14.5321   -4.5117   18.9486 N.am    1  UNL1       -0.2951
      4 H         -14.7352   -4.6487   19.9022 H       1  UNL1        0.1503
      5 N         -20.1179  -11.4559   17.9735 N.pl3   1  UNL1       -0.3375
      6 C         -19.3504  -10.1856   18.1910 C.ar    1  UNL1        0.1567
      7 N         -19.5939   -9.1838   19.2806 N.ar    1  UNL1       -0.2245
      8 C         -18.5987   -8.0731   19.1201 C.ar    1  UNL1        0.0892
      9 C         -18.3634   -6.8154   19.9028 C.ar    1  UNL1        0.0198
     10 C         -17.2695   -5.8729   19.4967 C.ar    1  UNL1        0.0061
     11 C         -16.4108   -6.1881   18.3079 C.ar    1  UNL1        0.0540
     12 C         -16.6461   -7.4459   17.5252 C.ar    1  UNL1        0.0126
     13 C         -17.7400   -8.3883   17.9312 C.ar    1  UNL1        0.0498
     14 S         -18.2046   -9.6939   17.3571 S.2     1  UNL1       -0.0520
     15 H         -20.8578  -11.6936   18.5779 H       1  UNL1        0.1442
     16 H         -19.8816  -12.0519   17.2264 H       1  UNL1        0.1442
     17 C         -13.4381   -3.5692   18.5425 C.3     1  UNL1        0.1171
     18 C         -12.0991   -4.1065   18.1325 C.ar    1  UNL1       -0.0003
     19 C         -11.7302   -4.1727   16.6801 C.ar    1  UNL1       -0.0024
     20 C         -10.3912   -4.7100   16.2701 C.ar    1  UNL1       -0.0003
     21 C          -9.4208   -5.1811   17.3125 C.ar    1  UNL1       -0.0000
     22 C          -9.7896   -5.1148   18.7650 C.ar    1  UNL1       -0.0003
     23 C         -11.1288   -4.5775   19.1749 C.ar    1  UNL1       -0.0024
     24 C         -13.6833   -2.0894   18.5465 C.ar    1  UNL1       -0.0003
     25 C         -12.5426   -1.1396   18.3307 C.ar    1  UNL1       -0.0024
     26 C         -12.7877    0.3403   18.3346 C.ar    1  UNL1       -0.0003
     27 C         -14.1736    0.8703   18.5544 C.ar    1  UNL1       -0.0000
     28 C         -15.3144   -0.0795   18.7703 C.ar    1  UNL1       -0.0003
     29 C         -15.0693   -1.5593   18.7663 C.ar    1  UNL1       -0.0024
@<TRIPOS>BOND
     1     5     6    1
     2     6     7   ar
     3     7     8   ar
     4     8     9   ar
     5     9    10   ar
     6    10    11   ar
     7    11     1    1
     8     1     2    2
     9     1     3   am
    10     3    17    1
    11    17    18    1
    12    18    19   ar
    13    19    20   ar
    14    20    21   ar
    15    21    22   ar
    16    22    23   ar
    17    17    24    1
    18    24    25   ar
    19    25    26   ar
    20    26    27   ar
    21    27    28   ar
    22    28    29   ar
    23    11    12   ar
    24    12    13   ar
    25    13    14   ar
    26    14     6   ar
    27    13     8   ar
    28    23    18   ar
    29    29    24   ar
    30     5    15    1
    31     5    16    1
    32     3     4    1
@<TRIPOS>MOLECULE
*****
 29 32 0 0 0
SMALL
GASTEIGER

@<TRIPOS>ATOM
      1 C           6.2008   -3.1992   24.3660 C.2     1  UNL1        0.2463
      2 O           7.0655   -2.0569   23.9218 O.2     1  UNL1       -0.2701
      3 N           4.8763   -3.4388   23.7041 N.am    1  UNL1       -0.2951
      4 H           4.3087   -4.1885   23.9957 H       1  UNL1        0.1503
      5 N           7.5969   -6.0016   31.5647 N.pl3   1  UNL1       -0.3375
      6 C           7.4570   -5.7088   30.1002 C.ar    1  UNL1        0.1567
      7 N           7.9227   -6.5872   28.9770 N.ar    1  UNL1       -0.2245
      8 C           7.5803   -5.9075   27.6844 C.ar    1  UNL1        0.0892
      9 C           7.7978   -6.3032   26.2540 C.ar    1  UNL1        0.0198
     10 C           7.3380   -5.4005   25.1479 C.ar    1  UNL1        0.0061
     11 C           6.6606   -4.1020   25.4722 C.ar    1  UNL1        0.0540
     12 C           6.4431   -3.7063   26.9026 C.ar    1  UNL1        0.0126
     13 C           6.9030   -4.6091   28.0087 C.ar    1  UNL1        0.0498
     14 S           6.8267   -4.4863   29.5017 S.2     1  UNL1       -0.0520
     15 H           8.0278   -6.8357   31.8610 H       1  UNL1        0.1442
     16 H           7.2578   -5.3596   32.2296 H       1  UNL1        0.1442
     17 C           4.4164   -2.5360   22.5979 C.3     1  UNL1        0.1171
     18 C           4.8331   -2.8108   21.1834 C.ar    1  UNL1       -0.0003
     19 C           4.1507   -3.8903   20.3967 C.ar    1  UNL1       -0.0024
     20 C           4.5674   -4.1650   18.9822 C.ar    1  UNL1       -0.0003
     21 C           5.6666   -3.3602   18.3544 C.ar    1  UNL1       -0.0000
     22 C           6.3491   -2.2807   19.1411 C.ar    1  UNL1       -0.0003
     23 C           5.9323   -2.0060   20.5557 C.ar    1  UNL1       -0.0024
     24 C           3.5398   -1.3585   22.9063 C.ar    1  UNL1       -0.0003
     25 C           3.4358   -0.8490   24.3132 C.ar    1  UNL1       -0.0024
     26 C           2.5592    0.3285   24.6216 C.ar    1  UNL1       -0.0003
     27 C           1.7867    0.9965   23.5230 C.ar    1  UNL1       -0.0000
     28 C           1.8907    0.4871   22.1160 C.ar    1  UNL1       -0.0003
     29 C           2.7673   -0.6904   21.8076 C.ar    1  UNL1       -0.0024
@<TRIPOS>BOND
     1     5     6    1
     2     6     7   ar
     3     7     8   ar
     4     8     9   ar
     5     9    10   ar
     6    10    11   ar
     7    11     1    1
     8     1     2    2
     9     1     3   am
    10     3    17    1
    11    17    18    1
    12    18    19   ar
    13    19    20   ar
    14    20    21   ar
    15    21    22   ar
    16    22    23   ar
    17    17    24    1
    18    24    25   ar
    19    25    26   ar
    20    26    27   ar
    21    27    28   ar
    22    28    29   ar
    23    11    12   ar
    24    12    13   ar
    25    13    14   ar
    26    14     6   ar
    27    13     8   ar
    28    23    18   ar
    29    29    24   ar
    30     5    15    1
    31     5    16    1
    32     3     4    1
@<TRIPOS>MOLECULE
*****
 29 32 0 0 0
SMALL
GASTEIGER

@<TRIPOS>ATOM
      1 C           6.1705   -3.1441   24.4478 C.2     1  UNL1        0.2463
      2 O           7.0046   -1.9600   24.0576 O.2     1  UNL1       -0.2701
      3 N           4.8758   -3.4152   23.7407 N.am    1  UNL1       -0.2951
      4 H           4.3284   -4.1924   23.9968 H       1  UNL1        0.1503
      5 N           7.5878   -6.0058   31.6190 N.pl3   1  UNL1       -0.3375
      6 C           7.4422   -5.7016   30.1574 C.ar    1  UNL1        0.1567
      7 N           7.8982   -6.5740   29.0256 N.ar    1  UNL1       -0.2245
      8 C           7.5529   -5.8833   27.7396 C.ar    1  UNL1        0.0892
      9 C           7.7616   -6.2696   26.3053 C.ar    1  UNL1        0.0198
     10 C           7.3008   -5.3565   25.2081 C.ar    1  UNL1        0.0061
     11 C           6.6313   -4.0572   25.5451 C.ar    1  UNL1        0.0540
     12 C           6.4227   -3.6709   26.9794 C.ar    1  UNL1        0.0126
     13 C           6.8835   -4.5840   28.0767 C.ar    1  UNL1        0.0498
     14 S           6.8151   -4.4717   29.5709 S.2     1  UNL1       -0.0520
     15 H           8.0161   -6.8441   31.9071 H       1  UNL1        0.1442
     16 H           7.2551   -5.3671   32.2902 H       1  UNL1        0.1442
     17 C           4.4149   -2.5022   22.6434 C.3     1  UNL1        0.1171
     18 C           3.5367   -1.3290   22.9631 C.ar    1  UNL1       -0.0003
     19 C           3.4366   -0.8295   24.3740 C.ar    1  UNL1       -0.0024
     20 C           2.5583    0.3436   24.6937 C.ar    1  UNL1       -0.0003
     21 C           1.7801    1.0174   23.6026 C.ar    1  UNL1       -0.0000
     22 C           1.8802    0.5179   22.1917 C.ar    1  UNL1       -0.0003
     23 C           2.7585   -0.6553   21.8720 C.ar    1  UNL1       -0.0024
     24 C           4.8325   -2.7624   21.2264 C.ar    1  UNL1       -0.0003
     25 C           4.1227   -3.8052   20.4148 C.ar    1  UNL1       -0.0024
     26 C           4.5402   -4.0654   18.9978 C.ar    1  UNL1       -0.0003
     27 C           5.6675   -3.2827   18.3923 C.ar    1  UNL1       -0.0000
     28 C           6.3773   -2.2398   19.2039 C.ar    1  UNL1       -0.0003
     29 C           5.9598   -1.9796   20.6209 C.ar    1  UNL1       -0.0024
@<TRIPOS>BOND
     1     5     6    1
     2     6     7   ar
     3     7     8   ar
     4     8     9   ar
     5     9    10   ar
     6    10    11   ar
     7    11     1    1
     8     1     2    2
     9     1     3   am
    10     3    17    1
    11    17    18    1
    12    18    19   ar
    13    19    20   ar
    14    20    21   ar
    15    21    22   ar
    16    22    23   ar
    17    17    24    1
    18    24    25   ar
    19    25    26   ar
    20    26    27   ar
    21    27    28   ar
    22    28    29   ar
    23    11    12   ar
    24    12    13   ar
    25    13    14   ar
    26    14     6   ar
    27    13     8   ar
    28    23    18   ar
    29    29    24   ar
    30     5    15    1
    31     5    16    1
    32     3     4    1
