@<TRIPOS>MOLECULE
*****
 31 34 0 0 0
SMALL
GASTEIGER

@<TRIPOS>ATOM
      1 C          -9.0091  -18.1339   22.1686 C.ar    1  UNL1       -0.0004
      2 C          -7.9742  -17.3093   22.8748 C.ar    1  UNL1       -0.0024
      3 C          -6.5175  -17.6164   22.6914 C.ar    1  UNL1       -0.0002
      4 C          -6.0957  -18.7480   21.8017 C.ar    1  UNL1        0.0030
      5 C          -4.6389  -19.0550   21.6182 C.ar    1  UNL1        0.0369
      6 C          -4.2172  -20.1866   20.7285 C.ar    1  UNL1        0.1386
      7 C          -5.2523  -21.0112   20.0222 C.ar    1  UNL1        0.0369
      8 C          -6.7090  -20.7041   20.2057 C.ar    1  UNL1        0.0031
      9 C          -7.1307  -19.5725   21.0954 C.ar    1  UNL1       -0.0001
     10 C          -8.5874  -19.2655   21.2788 C.ar    1  UNL1       -0.0024
     11 C         -10.4659  -17.8269   22.3520 C.3     1  UNL1        0.1240
     12 N         -11.2019  -17.0338   21.3130 N.ar    1  UNL1       -0.3045
     13 C         -10.5799  -16.2786   20.1760 C.ar    1  UNL1        0.0983
     14 C         -11.6826  -15.6347   19.3889 C.ar    1  UNL1        0.1193
     15 N         -12.9861  -15.9921   20.0395 N.ar    1  UNL1       -0.2223
     16 C         -12.6890  -16.8567   21.2286 C.ar    1  UNL1        0.1788
     17 C         -12.6717  -18.1348   23.6900 C.3     1  UNL1        0.0197
     18 C         -11.1867  -18.3129   23.5743 C.3     1  UNL1        0.0827
     19 N         -10.4227  -18.9772   24.6811 N.3     1  UNL1       -0.2696
     20 C          -9.8087  -18.1490   25.7707 C.3     1  UNL1        0.0897
     21 C         -10.2726  -20.4695   24.6984 C.3     1  UNL1        0.0897
     22 O          -2.7605  -20.4936   20.5450 O.3     1  UNL1       -0.4751
     23 C          -1.7271  -19.6965   21.2845 C.3     1  UNL1        0.2103
     24 C          -1.6698  -18.2067   21.1200 C.3     1  UNL1        0.0723
     25 C          -1.4819  -16.7854   20.6787 C.3     1  UNL1        0.0088
     26 C          -2.0028  -15.8905   21.7640 C.3     1  UNL1        0.0005
     27 C          -2.5126  -16.7586   22.8759 C.3     1  UNL1        0.0005
     28 C          -2.3068  -18.1901   22.4779 C.3     1  UNL1        0.0088
     29 C          -1.0448  -18.5347   19.7964 C.2     1  UNL1        0.0532
     30 O           0.3809  -18.9966   19.7341 O.co2   1  UNL1       -0.5491
     31 O          -1.8456  -18.4010   18.5352 O.co2   1  UNL1       -0.5491
@<TRIPOS>UNITY_ATOM_ATTR
30 1
charge -1
@<TRIPOS>BOND
     1    18    17    1
     2    18    11    1
     3    11     1    1
     4     1     2   ar
     5     2     3   ar
     6     3     4   ar
     7     4     5   ar
     8     5     6   ar
     9     6    22    1
    10    22    23    1
    11    23    24    1
    12    24    29    1
    13    29    30   ar
    14    29    31   ar
    15    24    25    1
    16    25    26    1
    17    26    27    1
    18    27    28    1
    19     6     7   ar
    20     7     8   ar
    21     8     9   ar
    22     9    10   ar
    23    11    12    1
    24    12    13   ar
    25    13    14   ar
    26    14    15   ar
    27    15    16   ar
    28    18    19    1
    29    19    20    1
    30    19    21    1
    31    10     1   ar
    32    16    12   ar
    33     9     4   ar
    34    28    24    1
@<TRIPOS>MOLECULE
*****
 31 34 0 0 0
SMALL
GASTEIGER

@<TRIPOS>ATOM
      1 C          -9.2069  -18.2058   21.9757 C.ar    1  UNL1       -0.0004
      2 C          -8.5653  -19.4951   21.5564 C.ar    1  UNL1       -0.0024
      3 C          -7.1030  -19.7202   21.8032 C.ar    1  UNL1       -0.0002
      4 C          -6.2823  -18.6559   22.4694 C.ar    1  UNL1        0.0030
      5 C          -4.8199  -18.8811   22.7163 C.ar    1  UNL1        0.0369
      6 C          -3.9992  -17.8168   23.3825 C.ar    1  UNL1        0.1386
      7 C          -4.6409  -16.5274   23.8019 C.ar    1  UNL1        0.0369
      8 C          -6.1032  -16.3023   23.5550 C.ar    1  UNL1        0.0031
      9 C          -6.9239  -17.3666   22.8888 C.ar    1  UNL1       -0.0001
     10 C          -8.3862  -17.1415   22.6419 C.ar    1  UNL1       -0.0024
     11 C         -10.6692  -17.9806   21.7288 C.3     1  UNL1        0.1240
     12 N         -11.6529  -18.1444   22.8494 N.ar    1  UNL1       -0.3045
     13 C         -13.0735  -17.6630   22.8529 C.ar    1  UNL1        0.0983
     14 C         -13.6873  -18.0393   24.1688 C.ar    1  UNL1        0.1193
     15 N         -12.6460  -18.7533   24.9786 N.ar    1  UNL1       -0.2223
     16 C         -11.3887  -18.8182   24.1632 C.ar    1  UNL1        0.1788
     17 C         -11.3924  -18.6473   19.3241 C.3     1  UNL1        0.0197
     18 C         -11.1479  -17.5918   20.3615 C.3     1  UNL1        0.0827
     19 N         -11.3820  -16.1474   20.0315 N.3     1  UNL1       -0.2696
     20 C         -12.6187  -15.7390   19.2872 C.3     1  UNL1        0.0897
     21 C         -10.3795  -15.1113   20.4457 C.3     1  UNL1        0.0897
     22 O          -2.5369  -18.0419   23.6294 O.3     1  UNL1       -0.4751
     23 C          -1.5882  -18.1460   22.4721 C.3     1  UNL1        0.2103
     24 C          -2.1200  -18.2554   21.0739 C.3     1  UNL1        0.0723
     25 C          -2.5536  -18.0681   19.6502 C.3     1  UNL1        0.0088
     26 C          -3.1802  -19.3488   19.1842 C.3     1  UNL1        0.0005
     27 C          -3.1338  -20.3277   20.3198 C.3     1  UNL1        0.0005
     28 C          -2.4786  -19.6519   21.4877 C.3     1  UNL1        0.0088
     29 C          -1.6502  -16.8361   20.9523 C.2     1  UNL1        0.0532
     30 O          -0.3367  -16.5346   20.2937 O.co2   1  UNL1       -0.5491
     31 O          -2.4940  -15.7183   21.4895 O.co2   1  UNL1       -0.5491
@<TRIPOS>UNITY_ATOM_ATTR
30 1
charge -1
@<TRIPOS>BOND
     1    18    17    1
     2    18    11    1
     3    11     1    1
     4     1     2   ar
     5     2     3   ar
     6     3     4   ar
     7     4     5   ar
     8     5     6   ar
     9     6    22    1
    10    22    23    1
    11    23    24    1
    12    24    29    1
    13    29    30   ar
    14    29    31   ar
    15    24    25    1
    16    25    26    1
    17    26    27    1
    18    27    28    1
    19     6     7   ar
    20     7     8   ar
    21     8     9   ar
    22     9    10   ar
    23    11    12    1
    24    12    13   ar
    25    13    14   ar
    26    14    15   ar
    27    15    16   ar
    28    18    19    1
    29    19    20    1
    30    19    21    1
    31    10     1   ar
    32    16    12   ar
    33     9     4   ar
    34    28    24    1
@<TRIPOS>MOLECULE
*****
 31 34 0 0 0
SMALL
GASTEIGER

@<TRIPOS>ATOM
      1 C          -8.7610  -18.2771   22.4819 C.ar    1  UNL1       -0.0004
      2 C          -8.2365  -19.5890   21.9779 C.ar    1  UNL1       -0.0024
      3 C          -6.7610  -19.8587   21.9835 C.ar    1  UNL1       -0.0002
      4 C          -5.8100  -18.8167   22.4931 C.ar    1  UNL1        0.0030
      5 C          -4.3344  -19.0866   22.4986 C.ar    1  UNL1        0.0369
      6 C          -3.3833  -18.0445   23.0082 C.ar    1  UNL1        0.1386
      7 C          -3.9078  -16.7327   23.5122 C.ar    1  UNL1        0.0369
      8 C          -5.3833  -16.4629   23.5066 C.ar    1  UNL1        0.0031
      9 C          -6.3344  -17.5049   22.9970 C.ar    1  UNL1       -0.0001
     10 C          -7.8099  -17.2351   22.9915 C.ar    1  UNL1       -0.0024
     11 C         -10.2365  -18.0073   22.4764 C.3     1  UNL1        0.1240
     12 N         -10.8767  -17.3635   21.2823 N.ar    1  UNL1       -0.3045
     13 C         -11.2818  -15.9238   21.1681 C.ar    1  UNL1        0.0983
     14 C         -11.8797  -15.7169   19.8080 C.ar    1  UNL1        0.1193
     15 N         -11.8441  -17.0289   19.0816 N.ar    1  UNL1       -0.2223
     16 C         -11.2243  -18.0465   19.9928 C.ar    1  UNL1        0.1788
     17 C         -12.5515  -18.1352   23.6488 C.3     1  UNL1        0.0197
     18 C         -11.0718  -18.3811   23.6648 C.3     1  UNL1        0.0827
     19 N         -10.4275  -19.0010   24.8692 N.3     1  UNL1       -0.2696
     20 C         -10.3494  -20.4939   24.9932 C.3     1  UNL1        0.0897
     21 C          -9.8614  -18.1280   25.9497 C.3     1  UNL1        0.0897
     22 O          -1.9078  -18.3143   23.0137 O.3     1  UNL1       -0.4751
     23 C          -1.1851  -18.5584   21.7221 C.3     1  UNL1        0.2103
     24 C          -1.7986  -18.1210   20.4252 C.3     1  UNL1        0.0723
     25 C          -2.2360  -17.4275   19.1691 C.3     1  UNL1        0.0088
     26 C          -3.2206  -18.3157   18.4680 C.3     1  UNL1        0.0005
     27 C          -3.3918  -19.5582   19.2907 C.3     1  UNL1        0.0005
     28 C          -2.5129  -19.4379   20.5003 C.3     1  UNL1        0.0088
     29 C          -0.9561  -16.8956   20.6212 C.2     1  UNL1        0.0532
     30 O          -1.5238  -15.7002   21.3274 O.co2   1  UNL1       -0.5491
     31 O           0.4542  -16.8657   20.1110 O.co2   1  UNL1       -0.5491
@<TRIPOS>UNITY_ATOM_ATTR
30 1
charge -1
@<TRIPOS>BOND
     1    18    17    1
     2    18    11    1
     3    11     1    1
     4     1     2   ar
     5     2     3   ar
     6     3     4   ar
     7     4     5   ar
     8     5     6   ar
     9     6    22    1
    10    22    23    1
    11    23    24    1
    12    24    29    1
    13    29    30   ar
    14    29    31   ar
    15    24    25    1
    16    25    26    1
    17    26    27    1
    18    27    28    1
    19     6     7   ar
    20     7     8   ar
    21     8     9   ar
    22     9    10   ar
    23    11    12    1
    24    12    13   ar
    25    13    14   ar
    26    14    15   ar
    27    15    16   ar
    28    18    19    1
    29    19    20    1
    30    19    21    1
    31    10     1   ar
    32    16    12   ar
    33     9     4   ar
    34    28    24    1
@<TRIPOS>MOLECULE
*****
 31 34 0 0 0
SMALL
GASTEIGER

@<TRIPOS>ATOM
      1 C          -9.0431  -18.3121   21.7535 C.ar    1  UNL1       -0.0004
      2 C          -8.2739  -17.6147   22.8360 C.ar    1  UNL1       -0.0024
      3 C          -6.8103  -17.8909   23.0130 C.ar    1  UNL1       -0.0002
      4 C          -6.1158  -18.8644   22.1075 C.ar    1  UNL1        0.0030
      5 C          -4.6521  -19.1406   22.2846 C.ar    1  UNL1        0.0369
      6 C          -3.9576  -20.1141   21.3791 C.ar    1  UNL1        0.1386
      7 C          -4.7270  -20.8115   20.2965 C.ar    1  UNL1        0.0369
      8 C          -6.1906  -20.5354   20.1195 C.ar    1  UNL1        0.0031
      9 C          -6.8851  -19.5618   21.0250 C.ar    1  UNL1       -0.0001
     10 C          -8.3487  -19.2856   20.8480 C.ar    1  UNL1       -0.0024
     11 C         -10.5069  -18.0359   21.5764 C.3     1  UNL1        0.1240
     12 N         -11.4496  -18.2204   22.7285 N.ar    1  UNL1       -0.3045
     13 C         -12.8600  -17.7151   22.8033 C.ar    1  UNL1        0.0983
     14 C         -13.4295  -18.1249   24.1291 C.ar    1  UNL1        0.1193
     15 N         -12.3712  -18.8835   24.8736 N.ar    1  UNL1       -0.2223
     16 C         -11.1476  -18.9425   24.0080 C.ar    1  UNL1        0.1788
     17 C         -11.4549  -18.5812   19.2197 C.3     1  UNL1        0.0197
     18 C         -11.0278  -17.5754   20.2474 C.3     1  UNL1        0.0827
     19 N         -11.1217  -16.1090   19.9459 N.3     1  UNL1       -0.2696
     20 C         -12.2136  -15.5949   19.0550 C.3     1  UNL1        0.0897
     21 C         -10.1238  -15.1567   20.5351 C.3     1  UNL1        0.0897
     22 O          -2.4940  -20.3903   21.5561 O.3     1  UNL1       -0.4751
     23 C          -1.4780  -19.4716   20.9445 C.3     1  UNL1        0.2103
     24 C          -1.6846  -17.9867   20.9923 C.3     1  UNL1        0.0723
     25 C          -1.7973  -16.5122   20.7410 C.3     1  UNL1        0.0088
     26 C          -2.2729  -15.8615   22.0061 C.3     1  UNL1        0.0005
     27 C          -2.4542  -16.9338   23.0391 C.3     1  UNL1        0.0005
     28 C          -2.0906  -18.2473   22.4126 C.3     1  UNL1        0.0088
     29 C          -1.2355  -18.0366   19.5620 C.2     1  UNL1        0.0532
     30 O           0.1470  -18.5119   19.2261 O.co2   1  UNL1       -0.5491
     31 O          -2.1688  -17.6112   18.4675 O.co2   1  UNL1       -0.5491
@<TRIPOS>UNITY_ATOM_ATTR
30 1
charge -1
@<TRIPOS>BOND
     1    18    17    1
     2    18    11    1
     3    11     1    1
     4     1     2   ar
     5     2     3   ar
     6     3     4   ar
     7     4     5   ar
     8     5     6   ar
     9     6    22    1
    10    22    23    1
    11    23    24    1
    12    24    29    1
    13    29    30   ar
    14    29    31   ar
    15    24    25    1
    16    25    26    1
    17    26    27    1
    18    27    28    1
    19     6     7   ar
    20     7     8   ar
    21     8     9   ar
    22     9    10   ar
    23    11    12    1
    24    12    13   ar
    25    13    14   ar
    26    14    15   ar
    27    15    16   ar
    28    18    19    1
    29    19    20    1
    30    19    21    1
    31    10     1   ar
    32    16    12   ar
    33     9     4   ar
    34    28    24    1
@<TRIPOS>MOLECULE
*****
 31 34 0 0 0
SMALL
GASTEIGER

@<TRIPOS>ATOM
      1 C           1.6658    1.1225   25.6768 C.ar    1  UNL1       -0.0004
      2 C           2.8522    0.2062   25.6239 C.ar    1  UNL1       -0.0024
      3 C           3.2650   -0.4118   24.3210 C.ar    1  UNL1       -0.0002
      4 C           2.4915   -0.1134   23.0710 C.ar    1  UNL1        0.0030
      5 C           2.9043   -0.7314   21.7680 C.ar    1  UNL1        0.0369
      6 C           2.1308   -0.4330   20.5179 C.ar    1  UNL1        0.1386
      7 C           0.9444    0.4834   20.5709 C.ar    1  UNL1        0.0369
      8 C           0.5316    1.1013   21.8738 C.ar    1  UNL1        0.0031
      9 C           1.3051    0.8029   23.1238 C.ar    1  UNL1       -0.0001
     10 C           0.8923    1.4209   24.4268 C.ar    1  UNL1       -0.0024
     11 C           1.2529    1.7405   26.9798 C.3     1  UNL1        0.1240
     12 N           0.3056    1.0137   27.8877 N.ar    1  UNL1       -0.3045
     13 C          -1.1730    1.2459   27.9876 C.ar    1  UNL1        0.0983
     14 C          -1.7219    0.3029   29.0168 C.ar    1  UNL1        0.1193
     15 N          -0.5826   -0.5122   29.5531 N.ar    1  UNL1       -0.2223
     16 C           0.6705   -0.0729   28.8553 C.ar    1  UNL1        0.1788
     17 C           0.9337    4.3082   27.2146 C.3     1  UNL1        0.0197
     18 C           1.7874    3.0852   27.3748 C.3     1  UNL1        0.0827
     19 N           3.1755    3.2071   27.9299 N.3     1  UNL1       -0.2696
     20 C           3.7729    2.0745   28.7113 C.3     1  UNL1        0.0897
     21 C           3.9663    4.4615   27.7038 C.3     1  UNL1        0.0897
     22 O           2.5436   -1.0510   19.2150 O.3     1  UNL1       -0.4751
     23 C           3.9987   -1.1846   18.8760 C.3     1  UNL1        0.2103
     24 C           4.6241   -2.5445   18.7776 C.3     1  UNL1        0.0723
     25 C           5.5114   -3.7433   18.6178 C.3     1  UNL1        0.0088
     26 C           4.6759   -4.9703   18.8331 C.3     1  UNL1        0.0005
     27 C           3.2723   -4.5299   19.1260 C.3     1  UNL1        0.0005
     28 C           3.2402   -3.0306   19.0916 C.3     1  UNL1        0.0088
     29 C           5.8772   -1.7740   18.4841 C.2     1  UNL1        0.0532
     30 O           6.2387   -0.5829   19.3211 O.co2   1  UNL1       -0.5491
     31 O           6.7688   -2.1947   17.3536 O.co2   1  UNL1       -0.5491
@<TRIPOS>UNITY_ATOM_ATTR
30 1
charge -1
@<TRIPOS>BOND
     1    18    17    1
     2    18    11    1
     3    11     1    1
     4     1     2   ar
     5     2     3   ar
     6     3     4   ar
     7     4     5   ar
     8     5     6   ar
     9     6    22    1
    10    22    23    1
    11    23    24    1
    12    24    29    1
    13    29    30   ar
    14    29    31   ar
    15    24    25    1
    16    25    26    1
    17    26    27    1
    18    27    28    1
    19     6     7   ar
    20     7     8   ar
    21     8     9   ar
    22     9    10   ar
    23    11    12    1
    24    12    13   ar
    25    13    14   ar
    26    14    15   ar
    27    15    16   ar
    28    18    19    1
    29    19    20    1
    30    19    21    1
    31    10     1   ar
    32    16    12   ar
    33     9     4   ar
    34    28    24    1
@<TRIPOS>MOLECULE
*****
 31 34 0 0 0
SMALL
GASTEIGER

@<TRIPOS>ATOM
      1 C           2.7929   -0.5637   20.3915 C.ar    1  UNL1       -0.0004
      2 C           1.4781    0.0580   20.0243 C.ar    1  UNL1       -0.0024
      3 C           0.6262    0.6916   21.0839 C.ar    1  UNL1       -0.0002
      4 C           1.0890    0.7034   22.5107 C.ar    1  UNL1        0.0030
      5 C           0.2370    1.3370   23.5703 C.ar    1  UNL1        0.0369
      6 C           0.6998    1.3488   24.9971 C.ar    1  UNL1        0.1386
      7 C           2.0146    0.7270   25.3642 C.ar    1  UNL1        0.0369
      8 C           2.8665    0.0935   24.3046 C.ar    1  UNL1        0.0031
      9 C           2.4037    0.0817   22.8779 C.ar    1  UNL1       -0.0001
     10 C           3.2557   -0.5519   21.8183 C.ar    1  UNL1       -0.0024
     11 C           3.6449   -1.1973   19.3319 C.3     1  UNL1        0.1240
     12 N           4.0632   -2.6317   19.4642 N.ar    1  UNL1       -0.3045
     13 C           3.2376   -3.8285   19.0954 C.ar    1  UNL1        0.0983
     14 C           4.0447   -5.0576   19.3918 C.ar    1  UNL1        0.1193
     15 N           5.3692   -4.6204   19.9438 N.ar    1  UNL1       -0.2223
     16 C           5.3806   -3.1211   19.9885 C.ar    1  UNL1        0.1788
     17 C           3.7700   -0.8849   16.7557 C.3     1  UNL1        0.0197
     18 C           4.0785   -0.3964   18.1400 C.3     1  UNL1        0.0827
     19 N           4.8207    0.8928   18.3324 N.3     1  UNL1       -0.2696
     20 C           6.2978    0.8762   18.5931 C.3     1  UNL1        0.0897
     21 C           4.0858    2.1986   18.2641 C.3     1  UNL1        0.0897
     22 O          -0.1522    1.9823   26.0567 O.3     1  UNL1       -0.4751
     23 C          -0.4643    1.2307   27.3168 C.3     1  UNL1        0.2103
     24 C           0.0955    1.6987   28.6274 C.3     1  UNL1        0.0723
     25 C           0.6415    1.8630   30.0148 C.3     1  UNL1        0.0088
     26 C           0.9278    3.3194   30.2308 C.3     1  UNL1        0.0005
     27 C           0.5587    4.0554   28.9769 C.3     1  UNL1        0.0005
     28 C           0.0443    3.0537   27.9859 C.3     1  UNL1        0.0088
     29 C           0.0296    0.2459   28.9948 C.2     1  UNL1        0.0532
     30 O           1.0796   -0.3512   29.8842 O.co2   1  UNL1       -0.5491
     31 O          -1.0863   -0.6098   28.4728 O.co2   1  UNL1       -0.5491
@<TRIPOS>UNITY_ATOM_ATTR
30 1
charge -1
@<TRIPOS>BOND
     1    18    17    1
     2    18    11    1
     3    11     1    1
     4     1     2   ar
     5     2     3   ar
     6     3     4   ar
     7     4     5   ar
     8     5     6   ar
     9     6    22    1
    10    22    23    1
    11    23    24    1
    12    24    29    1
    13    29    30   ar
    14    29    31   ar
    15    24    25    1
    16    25    26    1
    17    26    27    1
    18    27    28    1
    19     6     7   ar
    20     7     8   ar
    21     8     9   ar
    22     9    10   ar
    23    11    12    1
    24    12    13   ar
    25    13    14   ar
    26    14    15   ar
    27    15    16   ar
    28    18    19    1
    29    19    20    1
    30    19    21    1
    31    10     1   ar
    32    16    12   ar
    33     9     4   ar
    34    28    24    1
@<TRIPOS>MOLECULE
*****
 31 34 0 0 0
SMALL
GASTEIGER

@<TRIPOS>ATOM
      1 C           1.0820    1.2238   26.0852 C.ar    1  UNL1       -0.0004
      2 C           2.5038    0.8220   26.3438 C.ar    1  UNL1       -0.0024
      3 C           3.3976    0.4484   25.1987 C.ar    1  UNL1       -0.0002
      4 C           2.8697    0.4767   23.7949 C.ar    1  UNL1        0.0030
      5 C           3.7637    0.1030   22.6497 C.ar    1  UNL1        0.0369
      6 C           3.2358    0.1313   21.2460 C.ar    1  UNL1        0.1386
      7 C           1.8139    0.5333   20.9874 C.ar    1  UNL1        0.0369
      8 C           0.9200    0.9068   22.1325 C.ar    1  UNL1        0.0031
      9 C           1.4479    0.8785   23.5363 C.ar    1  UNL1       -0.0001
     10 C           0.5540    1.2521   24.6814 C.ar    1  UNL1       -0.0024
     11 C           0.1880    1.5975   27.2303 C.3     1  UNL1        0.1240
     12 N          -0.5646    2.8947   27.2020 N.ar    1  UNL1       -0.3045
     13 C          -1.9465    3.1006   26.6560 C.ar    1  UNL1        0.0983
     14 C          -2.3034    4.5469   26.8312 C.ar    1  UNL1        0.1193
     15 N          -1.1421    5.2350   27.4855 N.ar    1  UNL1       -0.2223
     16 C          -0.0675    4.2138   27.7146 C.ar    1  UNL1        0.1788
     17 C          -1.0617   -0.3365   28.4337 C.3     1  UNL1        0.0197
     18 C           0.0467    0.6739   28.4037 C.3     1  UNL1        0.0827
     19 N           1.0136    0.7606   29.5472 N.3     1  UNL1       -0.2696
     20 C           1.9834   -0.3565   29.7957 C.3     1  UNL1        0.0897
     21 C           1.0108    1.9643   30.4422 C.3     1  UNL1        0.0897
     22 O           4.1296   -0.2423   20.1009 O.3     1  UNL1       -0.4751
     23 C           3.6024   -1.0951   18.9851 C.3     1  UNL1        0.2103
     24 C           4.2629   -2.4031   18.6645 C.3     1  UNL1        0.0723
     25 C           5.0730   -3.5442   18.1246 C.3     1  UNL1        0.0088
     26 C           4.7198   -4.7743   18.9068 C.3     1  UNL1        0.0005
     27 C           3.6913   -4.3936   19.9301 C.3     1  UNL1        0.0005
     28 C           3.4089   -2.9280   19.7804 C.3     1  UNL1        0.0088
     29 C           4.9788   -1.6047   17.6157 C.2     1  UNL1        0.0532
     30 O           6.4777   -1.6143   17.5588 O.co2   1  UNL1       -0.5491
     31 O           4.1958   -0.7967   16.6237 O.co2   1  UNL1       -0.5491
@<TRIPOS>UNITY_ATOM_ATTR
30 1
charge -1
@<TRIPOS>BOND
     1    18    17    1
     2    18    11    1
     3    11     1    1
     4     1     2   ar
     5     2     3   ar
     6     3     4   ar
     7     4     5   ar
     8     5     6   ar
     9     6    22    1
    10    22    23    1
    11    23    24    1
    12    24    29    1
    13    29    30   ar
    14    29    31   ar
    15    24    25    1
    16    25    26    1
    17    26    27    1
    18    27    28    1
    19     6     7   ar
    20     7     8   ar
    21     8     9   ar
    22     9    10   ar
    23    11    12    1
    24    12    13   ar
    25    13    14   ar
    26    14    15   ar
    27    15    16   ar
    28    18    19    1
    29    19    20    1
    30    19    21    1
    31    10     1   ar
    32    16    12   ar
    33     9     4   ar
    34    28    24    1
@<TRIPOS>MOLECULE
*****
 31 34 0 0 0
SMALL
GASTEIGER

@<TRIPOS>ATOM
      1 C          -0.7189    2.9668   20.0037 C.ar    1  UNL1       -0.0004
      2 C           0.1159    3.6112   18.9371 C.ar    1  UNL1       -0.0024
      3 C           1.2880    2.8771   18.3564 C.ar    1  UNL1       -0.0002
      4 C           1.6253    1.4987   18.8424 C.ar    1  UNL1        0.0030
      5 C           2.7975    0.7646   18.2616 C.ar    1  UNL1        0.0369
      6 C           3.1347   -0.6139   18.7476 C.ar    1  UNL1        0.1386
      7 C           2.2998   -1.2582   19.8143 C.ar    1  UNL1        0.0369
      8 C           1.1277   -0.5241   20.3950 C.ar    1  UNL1        0.0031
      9 C           0.7904    0.8543   19.9090 C.ar    1  UNL1       -0.0001
     10 C          -0.3817    1.5884   20.4897 C.ar    1  UNL1       -0.0024
     11 C          -1.8911    3.7009   20.5845 C.3     1  UNL1        0.1240
     12 N          -3.2308    3.6244   19.9142 N.ar    1  UNL1       -0.3045
     13 C          -3.5221    3.9695   18.4838 C.ar    1  UNL1        0.0983
     14 C          -4.9858    3.7478   18.2422 C.ar    1  UNL1        0.1193
     15 N          -5.5992    3.2655   19.5233 N.ar    1  UNL1       -0.2223
     16 C          -4.5146    3.1893   20.5566 C.ar    1  UNL1        0.1788
     17 C          -1.4228    5.9783   21.7440 C.3     1  UNL1        0.0197
     18 C          -1.7235    4.5115   21.8354 C.3     1  UNL1        0.0827
     19 N          -1.8566    3.8554   23.1777 N.3     1  UNL1       -0.2696
     20 C          -3.1746    3.8729   23.8937 C.3     1  UNL1        0.0897
     21 C          -0.6717    3.1818   23.8040 C.3     1  UNL1        0.0897
     22 O           4.3068   -1.3480   18.1669 O.3     1  UNL1       -0.4751
     23 C           4.5042   -2.8040   18.4687 C.3     1  UNL1        0.2103
     24 C           5.6213   -3.2383   19.3706 C.3     1  UNL1        0.0723
     25 C           6.5182   -3.8535   20.4036 C.3     1  UNL1        0.0088
     26 C           7.8919   -3.2776   20.2267 C.3     1  UNL1        0.0005
     27 C           7.8440   -2.3066   19.0845 C.3     1  UNL1        0.0005
     28 C           6.4406   -2.2823   18.5554 C.3     1  UNL1        0.0088
     29 C           4.5683   -4.1035   19.9973 C.2     1  UNL1        0.0532
     30 O           3.4189   -4.6023   19.1727 O.co2   1  UNL1       -0.5491
     31 O           4.6649   -4.4700   21.4486 O.co2   1  UNL1       -0.5491
@<TRIPOS>UNITY_ATOM_ATTR
30 1
charge -1
@<TRIPOS>BOND
     1    18    17    1
     2    18    11    1
     3    11     1    1
     4     1     2   ar
     5     2     3   ar
     6     3     4   ar
     7     4     5   ar
     8     5     6   ar
     9     6    22    1
    10    22    23    1
    11    23    24    1
    12    24    29    1
    13    29    30   ar
    14    29    31   ar
    15    24    25    1
    16    25    26    1
    17    26    27    1
    18    27    28    1
    19     6     7   ar
    20     7     8   ar
    21     8     9   ar
    22     9    10   ar
    23    11    12    1
    24    12    13   ar
    25    13    14   ar
    26    14    15   ar
    27    15    16   ar
    28    18    19    1
    29    19    20    1
    30    19    21    1
    31    10     1   ar
    32    16    12   ar
    33     9     4   ar
    34    28    24    1
@<TRIPOS>MOLECULE
*****
 31 34 0 0 0
SMALL
GASTEIGER

@<TRIPOS>ATOM
      1 C           2.9073   -1.0770   20.8714 C.ar    1  UNL1       -0.0004
      2 C           1.8457   -0.8240   19.8424 C.ar    1  UNL1       -0.0024
      3 C           0.7910    0.2129   20.0922 C.ar    1  UNL1       -0.0002
      4 C           0.7979    0.9967   21.3711 C.ar    1  UNL1        0.0030
      5 C          -0.2568    2.0337   21.6209 C.ar    1  UNL1        0.0369
      6 C          -0.2499    2.8175   22.8998 C.ar    1  UNL1        0.1386
      7 C           0.8117    2.5644   23.9288 C.ar    1  UNL1        0.0369
      8 C           1.8664    1.5275   23.6790 C.ar    1  UNL1        0.0031
      9 C           1.8595    0.7437   22.4001 C.ar    1  UNL1       -0.0001
     10 C           2.9142   -0.2932   22.1503 C.ar    1  UNL1       -0.0024
     11 C           3.9620   -2.1140   20.6216 C.3     1  UNL1        0.1240
     12 N           4.9120   -2.4966   21.7176 N.ar    1  UNL1       -0.3045
     13 C           4.6639   -3.5261   22.7800 C.ar    1  UNL1        0.0983
     14 C           5.8754   -3.5827   23.6626 C.ar    1  UNL1        0.1193
     15 N           6.8723   -2.5883   23.1457 N.ar    1  UNL1       -0.2223
     16 C           6.2769   -1.9170   21.9437 C.ar    1  UNL1        0.1788
     17 C           3.4010   -4.0899   19.0306 C.3     1  UNL1        0.0197
     18 C           4.0668   -2.7682   19.2759 C.3     1  UNL1        0.0827
     19 N           4.8373   -2.1009   18.1755 N.3     1  UNL1       -0.2696
     20 C           6.3248   -2.2740   18.0897 C.3     1  UNL1        0.0897
     21 C           4.1202   -1.2604   17.1608 C.3     1  UNL1        0.0897
     22 O          -1.3046    3.8544   23.1496 O.3     1  UNL1       -0.4751
     23 C          -2.7350    3.5689   22.7994 C.3     1  UNL1        0.2103
     24 C          -3.8012    3.6835   23.8482 C.3     1  UNL1        0.0723
     25 C          -5.0612    3.7279   24.6608 C.3     1  UNL1        0.0088
     26 C          -4.6897    4.0670   26.0739 C.3     1  UNL1        0.0005
     27 C          -3.2001    4.2321   26.1348 C.3     1  UNL1        0.0005
     28 C          -2.6510    3.9951   24.7592 C.3     1  UNL1        0.0088
     29 C          -4.7285    3.3479   22.7180 C.2     1  UNL1        0.0532
     30 O          -4.1941    2.6942   21.4782 O.co2   1  UNL1       -0.5491
     31 O          -6.1903    3.6660   22.8275 O.co2   1  UNL1       -0.5491
@<TRIPOS>UNITY_ATOM_ATTR
30 1
charge -1
@<TRIPOS>BOND
     1    18    17    1
     2    18    11    1
     3    11     1    1
     4     1     2   ar
     5     2     3   ar
     6     3     4   ar
     7     4     5   ar
     8     5     6   ar
     9     6    22    1
    10    22    23    1
    11    23    24    1
    12    24    29    1
    13    29    30   ar
    14    29    31   ar
    15    24    25    1
    16    25    26    1
    17    26    27    1
    18    27    28    1
    19     6     7   ar
    20     7     8   ar
    21     8     9   ar
    22     9    10   ar
    23    11    12    1
    24    12    13   ar
    25    13    14   ar
    26    14    15   ar
    27    15    16   ar
    28    18    19    1
    29    19    20    1
    30    19    21    1
    31    10     1   ar
    32    16    12   ar
    33     9     4   ar
    34    28    24    1
