@<TRIPOS>MOLECULE
*****
 31 34 0 0 0
SMALL
GASTEIGER

@<TRIPOS>ATOM
      1 C           4.9143   -1.3886   33.9538 C.2     1  UNL1        0.2260
      2 O           3.9107   -2.4405   33.5846 O.2     1  UNL1       -0.2748
      3 N           6.1829   -1.2526   33.1649 N.am    1  UNL1       -0.2839
      4 H           6.8416   -0.5623   33.4072 H       1  UNL1        0.1549
      5 C           6.4478   -2.1685   32.0069 C.ar    1  UNL1        0.0504
      6 C           6.3232   -1.6570   30.6023 C.ar    1  UNL1        0.0160
      7 C           6.5881   -2.5729   29.4443 C.ar    1  UNL1        0.0200
      8 C           6.9776   -4.0002   29.6908 C.ar    1  UNL1        0.1104
      9 C           7.1023   -4.5118   31.0954 C.ar    1  UNL1        0.0200
     10 C           6.8374   -3.5959   32.2534 C.ar    1  UNL1        0.0160
     11 S           7.2425   -4.9161   28.5329 S.O2    1  UNL1        0.0274
     12 O           7.1722   -3.7488   27.5934 O.2     1  UNL1       -0.1642
     13 O           7.3129   -6.0834   29.4722 O.2     1  UNL1       -0.1642
     14 C           7.5075   -5.8321   27.3748 C.ar    1  UNL1        0.1103
     15 C           7.3947   -5.3174   25.9705 C.ar    1  UNL1        0.0187
     16 C           7.6596   -6.2333   24.8125 C.ar    1  UNL1        0.0013
     17 C           8.0373   -7.6639   25.0590 C.ar    1  UNL1        0.0001
     18 C           8.1500   -8.1786   26.4634 C.ar    1  UNL1        0.0013
     19 C           7.8851   -7.2627   27.6213 C.ar    1  UNL1        0.0187
     20 C           4.0069    0.7619   35.6709 C.3     1  UNL1        0.0330
     21 C           4.8331   -0.1211   36.5583 C.3     1  UNL1        0.0143
     22 C           4.6494   -0.4727   35.1118 C.3     1  UNL1        0.0812
     23 N           0.6149    5.6527   34.9128 N.pl3   1  UNL1       -0.3426
     24 C           1.4629    4.4300   35.1024 C.ar    1  UNL1        0.1254
     25 C           2.0357    4.1165   36.4527 C.ar    1  UNL1        0.0336
     26 C           2.8837    2.8938   36.6423 C.ar    1  UNL1        0.0001
     27 C           3.1589    1.9846   35.4814 C.ar    1  UNL1       -0.0028
     28 C           2.5861    2.2982   34.1310 C.ar    1  UNL1        0.0960
     29 N           1.7381    3.5208   33.9415 N.ar    1  UNL1       -0.2299
     30 H           0.4343    6.2494   35.6748 H       1  UNL1        0.1437
     31 H           0.2390    5.8585   34.0265 H       1  UNL1        0.1437
@<TRIPOS>BOND
     1    23    24    1
     2    24    25   ar
     3    25    26   ar
     4    26    27   ar
     5    20    27    1
     6    20    21    1
     7    21    22    1
     8    22     1    1
     9     1     2    2
    10     1     3   am
    11     3     5    1
    12     5     6   ar
    13     6     7   ar
    14     7     8   ar
    15     8    11    1
    16    11    12    2
    17    11    13    2
    18    11    14    1
    19    14    15   ar
    20    15    16   ar
    21    16    17   ar
    22    17    18   ar
    23    18    19   ar
    24     8     9   ar
    25     9    10   ar
    26    27    28   ar
    27    28    29   ar
    28    29    24   ar
    29    22    20    1
    30    10     5   ar
    31    19    14   ar
    32    23    30    1
    33    23    31    1
    34     3     4    1
@<TRIPOS>MOLECULE
*****
 31 34 0 0 0
SMALL
GASTEIGER

@<TRIPOS>ATOM
      1 C          -0.3054    2.7020   19.7197 C.2     1  UNL1        0.2260
      2 O           1.0686    3.0797   19.2511 O.2     1  UNL1       -0.2748
      3 N          -0.5051    1.4559   20.5305 N.am    1  UNL1       -0.2839
      4 H          -1.4069    1.2080   20.8381 H       1  UNL1        0.1549
      5 C           0.6691    0.5874   20.8725 C.ar    1  UNL1        0.0504
      6 C           1.3504    0.7363   22.2006 C.ar    1  UNL1        0.0160
      7 C           2.5246   -0.1321   22.5427 C.ar    1  UNL1        0.0200
      8 C           3.0175   -1.1494   21.5567 C.ar    1  UNL1        0.1104
      9 C           2.3363   -1.2983   20.2287 C.ar    1  UNL1        0.0200
     10 C           1.1620   -0.4299   19.8866 C.ar    1  UNL1        0.0160
     11 S           4.1917   -2.0179   21.8988 S.O2    1  UNL1        0.0274
     12 O           4.4337   -2.2656   20.4392 O.2     1  UNL1       -0.1642
     13 O           3.9498   -1.7701   23.3582 O.2     1  UNL1       -0.1642
     14 C           5.3660   -2.8863   22.2409 C.ar    1  UNL1        0.1103
     15 C           6.3374   -3.2895   21.1715 C.ar    1  UNL1        0.0187
     16 C           7.5116   -4.1580   21.5137 C.ar    1  UNL1        0.0013
     17 C           7.7143   -4.6232   22.9252 C.ar    1  UNL1        0.0001
     18 C           6.7429   -4.2200   23.9946 C.ar    1  UNL1        0.0013
     19 C           5.5687   -3.3515   23.6525 C.ar    1  UNL1        0.0187
     20 C          -2.8646    4.0606   19.6800 C.3     1  UNL1        0.0330
     21 C          -2.1283    4.5845   18.4828 C.3     1  UNL1        0.0143
     22 C          -1.4796    3.5705   19.3777 C.3     1  UNL1        0.0812
     23 N          -7.7636    3.9825   23.1432 N.pl3   1  UNL1       -0.3426
     24 C          -6.5389    4.0020   22.2774 C.ar    1  UNL1        0.1254
     25 C          -5.2623    3.3875   22.7699 C.ar    1  UNL1        0.0336
     26 C          -4.0376    3.4070   21.9041 C.ar    1  UNL1        0.0001
     27 C          -4.0894    4.0411   20.5458 C.ar    1  UNL1       -0.0028
     28 C          -5.3659    4.6557   20.0532 C.ar    1  UNL1        0.0960
     29 N          -6.5907    4.6361   20.9190 N.ar    1  UNL1       -0.2299
     30 H          -7.7296    3.5663   24.0347 H       1  UNL1        0.1437
     31 H          -8.6015    4.3859   22.8198 H       1  UNL1        0.1437
@<TRIPOS>BOND
     1    23    24    1
     2    24    25   ar
     3    25    26   ar
     4    26    27   ar
     5    20    27    1
     6    20    21    1
     7    21    22    1
     8    22     1    1
     9     1     2    2
    10     1     3   am
    11     3     5    1
    12     5     6   ar
    13     6     7   ar
    14     7     8   ar
    15     8    11    1
    16    11    12    2
    17    11    13    2
    18    11    14    1
    19    14    15   ar
    20    15    16   ar
    21    16    17   ar
    22    17    18   ar
    23    18    19   ar
    24     8     9   ar
    25     9    10   ar
    26    27    28   ar
    27    28    29   ar
    28    29    24   ar
    29    22    20    1
    30    10     5   ar
    31    19    14   ar
    32    23    30    1
    33    23    31    1
    34     3     4    1
@<TRIPOS>MOLECULE
*****
 31 34 0 0 0
SMALL
GASTEIGER

@<TRIPOS>ATOM
      1 C           6.5571   -2.8785   21.3406 C.2     1  UNL1        0.2260
      2 O           6.9894   -1.4441   21.2667 O.2     1  UNL1       -0.2748
      3 N           5.1215   -3.2424   21.1024 N.am    1  UNL1       -0.2839
      4 H           4.8377   -4.1839   21.1509 H       1  UNL1        0.1549
      5 C           4.1183   -2.1719   20.7902 C.ar    1  UNL1        0.0504
      6 C           3.8803   -1.7587   19.3679 C.ar    1  UNL1        0.0160
      7 C           2.8771   -0.6882   19.0558 C.ar    1  UNL1        0.0200
      8 C           2.1119   -0.0307   20.1658 C.ar    1  UNL1        0.1104
      9 C           2.3499   -0.4438   21.5880 C.ar    1  UNL1        0.0200
     10 C           3.3531   -1.5144   21.9002 C.ar    1  UNL1        0.0160
     11 S           1.1087    1.0398   19.8536 S.O2    1  UNL1        0.0274
     12 O           2.1880    1.8664   19.2195 O.2     1  UNL1       -0.1642
     13 O           0.0294    0.2133   20.4877 O.2     1  UNL1       -0.1642
     14 C           0.1054    2.1104   19.5415 C.ar    1  UNL1        0.1103
     15 C           0.1612    2.8302   18.2267 C.ar    1  UNL1        0.0187
     16 C          -0.8420    3.9007   17.9146 C.ar    1  UNL1        0.0013
     17 C          -1.9011    4.2514   18.9172 C.ar    1  UNL1        0.0001
     18 C          -1.9569    3.5316   20.2320 C.ar    1  UNL1        0.0013
     19 C          -0.9537    2.4611   20.5441 C.ar    1  UNL1        0.0187
     20 C           8.0792   -5.0150   22.5718 C.3     1  UNL1        0.0330
     21 C           8.7791   -4.7374   21.2744 C.3     1  UNL1        0.0143
     22 C           7.5603   -3.9491   21.6528 C.3     1  UNL1        0.0812
     23 N           7.6612   -8.1176   27.6903 N.pl3   1  UNL1       -0.3426
     24 C           7.7657   -7.3419   26.4106 C.ar    1  UNL1        0.1254
     25 C           8.4818   -7.9322   25.2322 C.ar    1  UNL1        0.0336
     26 C           8.5862   -7.1565   23.9525 C.ar    1  UNL1        0.0001
     27 C           7.9747   -5.7906   23.8514 C.ar    1  UNL1       -0.0028
     28 C           7.2587   -5.2004   25.0299 C.ar    1  UNL1        0.0960
     29 N           7.1542   -5.9760   26.3095 N.ar    1  UNL1       -0.2299
     30 H           8.0626   -9.0141   27.7566 H       1  UNL1        0.1437
     31 H           7.1913   -7.7302   28.4638 H       1  UNL1        0.1437
@<TRIPOS>BOND
     1    23    24    1
     2    24    25   ar
     3    25    26   ar
     4    26    27   ar
     5    20    27    1
     6    20    21    1
     7    21    22    1
     8    22     1    1
     9     1     2    2
    10     1     3   am
    11     3     5    1
    12     5     6   ar
    13     6     7   ar
    14     7     8   ar
    15     8    11    1
    16    11    12    2
    17    11    13    2
    18    11    14    1
    19    14    15   ar
    20    15    16   ar
    21    16    17   ar
    22    17    18   ar
    23    18    19   ar
    24     8     9   ar
    25     9    10   ar
    26    27    28   ar
    27    28    29   ar
    28    29    24   ar
    29    22    20    1
    30    10     5   ar
    31    19    14   ar
    32    23    30    1
    33    23    31    1
    34     3     4    1
@<TRIPOS>MOLECULE
*****
 31 34 0 0 0
SMALL
GASTEIGER

@<TRIPOS>ATOM
      1 C           0.3168    2.9165   18.2761 C.2     1  UNL1        0.2260
      2 O           1.0911    3.5139   19.4135 O.2     1  UNL1       -0.2748
      3 N           0.5010    1.4708   17.9210 N.am    1  UNL1       -0.2839
      4 H          -0.0072    1.0787   17.1745 H       1  UNL1        0.1549
      5 C           1.4594    0.6226   18.7032 C.ar    1  UNL1        0.0504
      6 C           2.8608    0.4221   18.2071 C.ar    1  UNL1        0.0160
      7 C           3.8191   -0.4262   18.9893 C.ar    1  UNL1        0.0200
      8 C           3.3763   -1.0739   20.2677 C.ar    1  UNL1        0.1104
      9 C           1.9750   -0.8735   20.7639 C.ar    1  UNL1        0.0200
     10 C           1.0165   -0.0252   19.9816 C.ar    1  UNL1        0.0160
     11 S           4.3347   -1.9222   21.0500 S.O2    1  UNL1        0.0274
     12 O           5.1501   -2.1439   19.8106 O.2     1  UNL1       -0.1642
     13 O           3.5193   -1.7005   22.2893 O.2     1  UNL1       -0.1642
     14 C           5.2931   -2.7704   21.8323 C.ar    1  UNL1        0.1103
     15 C           6.4802   -3.3839   21.1508 C.ar    1  UNL1        0.0187
     16 C           7.4385   -4.2321   21.9332 C.ar    1  UNL1        0.0013
     17 C           7.2098   -4.4668   23.3969 C.ar    1  UNL1        0.0001
     18 C           6.0227   -3.8534   24.0784 C.ar    1  UNL1        0.0013
     19 C           5.0643   -3.0052   23.2960 C.ar    1  UNL1        0.0187
     20 C          -2.0337    4.2706   17.2571 C.3     1  UNL1        0.0330
     21 C          -0.9094    4.7281   16.3758 C.3     1  UNL1        0.0143
     22 C          -0.6416    3.7647   17.4939 C.3     1  UNL1        0.0812
     23 N          -7.8451    4.3822   18.7454 N.pl3   1  UNL1       -0.3426
     24 C          -6.3922    4.3543   18.3733 C.ar    1  UNL1        0.1254
     25 C          -5.9387    4.9542   17.0755 C.ar    1  UNL1        0.0336
     26 C          -4.4859    4.9263   16.7034 C.ar    1  UNL1        0.0001
     27 C          -3.4865    4.2985   17.6291 C.ar    1  UNL1       -0.0028
     28 C          -3.9400    3.6987   18.9270 C.ar    1  UNL1        0.0960
     29 N          -5.3928    3.7266   19.2991 N.ar    1  UNL1       -0.2299
     30 H          -8.5010    4.7943   18.1378 H       1  UNL1        0.1437
     31 H          -8.1427    3.9885   19.5973 H       1  UNL1        0.1437
@<TRIPOS>BOND
     1    23    24    1
     2    24    25   ar
     3    25    26   ar
     4    26    27   ar
     5    20    27    1
     6    20    21    1
     7    21    22    1
     8    22     1    1
     9     1     2    2
    10     1     3   am
    11     3     5    1
    12     5     6   ar
    13     6     7   ar
    14     7     8   ar
    15     8    11    1
    16    11    12    2
    17    11    13    2
    18    11    14    1
    19    14    15   ar
    20    15    16   ar
    21    16    17   ar
    22    17    18   ar
    23    18    19   ar
    24     8     9   ar
    25     9    10   ar
    26    27    28   ar
    27    28    29   ar
    28    29    24   ar
    29    22    20    1
    30    10     5   ar
    31    19    14   ar
    32    23    30    1
    33    23    31    1
    34     3     4    1
@<TRIPOS>MOLECULE
*****
 31 34 0 0 0
SMALL
GASTEIGER

@<TRIPOS>ATOM
      1 C           3.3271    0.1326   25.2029 C.2     1  UNL1        0.2260
      2 O           3.9401    1.4042   25.7101 O.2     1  UNL1       -0.2748
      3 N           3.1501   -1.0354   26.1273 N.am    1  UNL1       -0.2839
      4 H           2.7477   -1.8700   25.7944 H       1  UNL1        0.1549
      5 C           3.5861   -0.9319   27.5587 C.ar    1  UNL1        0.0504
      6 C           5.0239   -1.1565   27.9229 C.ar    1  UNL1        0.0160
      7 C           5.4599   -1.0530   29.3544 C.ar    1  UNL1        0.0200
      8 C           4.4583   -0.7248   30.4217 C.ar    1  UNL1        0.1104
      9 C           3.0207   -0.5002   30.0575 C.ar    1  UNL1        0.0200
     10 C           2.5845   -0.6037   28.6260 C.ar    1  UNL1        0.0160
     11 S           4.8944   -0.6213   31.8531 S.O2    1  UNL1        0.0274
     12 O           6.1953   -0.0179   31.4132 O.2     1  UNL1       -0.1642
     13 O           3.5935   -1.2246   32.2930 O.2     1  UNL1       -0.1642
     14 C           5.3304   -0.5177   33.2847 C.ar    1  UNL1        0.1103
     15 C           6.7696   -0.2516   33.6129 C.ar    1  UNL1        0.0187
     16 C           7.2056   -0.1481   35.0444 C.ar    1  UNL1        0.0013
     17 C           6.2023   -0.3107   36.1476 C.ar    1  UNL1        0.0001
     18 C           4.7631   -0.5767   35.8193 C.ar    1  UNL1        0.0013
     19 C           4.3271   -0.6803   34.3879 C.ar    1  UNL1        0.0187
     20 C           2.9212   -0.6849   22.4527 C.3     1  UNL1        0.0330
     21 C           2.1055    0.5638   22.6109 C.3     1  UNL1        0.0143
     22 C           2.8910    0.0291   23.7715 C.3     1  UNL1        0.0812
     23 N           4.8751   -5.2179   19.0418 N.pl3   1  UNL1       -0.3426
     24 C           4.3866   -4.0847   19.8945 C.ar    1  UNL1        0.1254
     25 C           3.5609   -2.9902   19.2862 C.ar    1  UNL1        0.0336
     26 C           3.0724   -1.8569   20.1389 C.ar    1  UNL1        0.0001
     27 C           3.4097   -1.8182   21.6000 C.ar    1  UNL1       -0.0028
     28 C           4.2354   -2.9127   22.2083 C.ar    1  UNL1        0.0960
     29 N           4.7239   -4.0460   21.3555 N.ar    1  UNL1       -0.2299
     30 H           4.6537   -5.2433   18.0828 H       1  UNL1        0.1437
     31 H           5.4171   -5.9363   19.4410 H       1  UNL1        0.1437
@<TRIPOS>BOND
     1    23    24    1
     2    24    25   ar
     3    25    26   ar
     4    26    27   ar
     5    20    27    1
     6    20    21    1
     7    21    22    1
     8    22     1    1
     9     1     2    2
    10     1     3   am
    11     3     5    1
    12     5     6   ar
    13     6     7   ar
    14     7     8   ar
    15     8    11    1
    16    11    12    2
    17    11    13    2
    18    11    14    1
    19    14    15   ar
    20    15    16   ar
    21    16    17   ar
    22    17    18   ar
    23    18    19   ar
    24     8     9   ar
    25     9    10   ar
    26    27    28   ar
    27    28    29   ar
    28    29    24   ar
    29    22    20    1
    30    10     5   ar
    31    19    14   ar
    32    23    30    1
    33    23    31    1
    34     3     4    1
@<TRIPOS>MOLECULE
*****
 31 34 0 0 0
SMALL
GASTEIGER

@<TRIPOS>ATOM
      1 C           4.4186   -2.1645   19.3166 C.2     1  UNL1        0.2260
      2 O           3.9776   -3.5982   19.3285 O.2     1  UNL1       -0.2748
      3 N           5.3825   -1.6677   20.3530 N.am    1  UNL1       -0.2839
      4 H           5.6720   -0.7267   20.3452 H       1  UNL1        0.1549
      5 C           5.9053   -2.6045   21.4013 C.ar    1  UNL1        0.0504
      6 C           7.1061   -3.4564   21.1143 C.ar    1  UNL1        0.0160
      7 C           7.6289   -4.3933   22.1627 C.ar    1  UNL1        0.0200
      8 C           6.9509   -4.4782   23.4980 C.ar    1  UNL1        0.1104
      9 C           5.7502   -3.6263   23.7850 C.ar    1  UNL1        0.0200
     10 C           5.2273   -2.6894   22.7367 C.ar    1  UNL1        0.0160
     11 S           7.4737   -5.4150   24.5463 S.O2    1  UNL1        0.0274
     12 O           8.0196   -6.3106   23.4739 O.2     1  UNL1       -0.1642
     13 O           6.9279   -4.5195   25.6188 O.2     1  UNL1       -0.1642
     14 C           7.9965   -6.3519   25.5947 C.ar    1  UNL1        0.1103
     15 C           7.6203   -6.1531   27.0331 C.ar    1  UNL1        0.0187
     16 C           8.1431   -7.0899   28.0814 C.ar    1  UNL1        0.0013
     17 C           9.0421   -8.2255   27.6914 C.ar    1  UNL1        0.0001
     18 C           9.4184   -8.4243   26.2530 C.ar    1  UNL1        0.0013
     19 C           8.8956   -7.4874   25.2047 C.ar    1  UNL1        0.0187
     20 C           3.1658    0.0288   17.8964 C.3     1  UNL1        0.0330
     21 C           3.7204   -0.8616   16.8242 C.3     1  UNL1        0.0143
     22 C           3.8958   -1.2277   18.2682 C.3     1  UNL1        0.0812
     23 N           0.1991    4.9868   19.5140 N.pl3   1  UNL1       -0.3426
     24 C           0.9408    3.7473   19.1096 C.ar    1  UNL1        0.1254
     25 C           2.4285    3.7907   18.9231 C.ar    1  UNL1        0.0336
     26 C           3.1702    2.5512   18.5187 C.ar    1  UNL1        0.0001
     27 C           2.4241    1.2683   18.3008 C.ar    1  UNL1       -0.0028
     28 C           0.9364    1.2249   18.4873 C.ar    1  UNL1        0.0960
     29 N           0.1948    2.4644   18.8917 N.ar    1  UNL1       -0.2299
     30 H           0.6888    5.8289   19.6570 H       1  UNL1        0.1437
     31 H          -0.7773    4.9583   19.6364 H       1  UNL1        0.1437
@<TRIPOS>BOND
     1    23    24    1
     2    24    25   ar
     3    25    26   ar
     4    26    27   ar
     5    20    27    1
     6    20    21    1
     7    21    22    1
     8    22     1    1
     9     1     2    2
    10     1     3   am
    11     3     5    1
    12     5     6   ar
    13     6     7   ar
    14     7     8   ar
    15     8    11    1
    16    11    12    2
    17    11    13    2
    18    11    14    1
    19    14    15   ar
    20    15    16   ar
    21    16    17   ar
    22    17    18   ar
    23    18    19   ar
    24     8     9   ar
    25     9    10   ar
    26    27    28   ar
    27    28    29   ar
    28    29    24   ar
    29    22    20    1
    30    10     5   ar
    31    19    14   ar
    32    23    30    1
    33    23    31    1
    34     3     4    1
@<TRIPOS>MOLECULE
*****
 31 34 0 0 0
SMALL
GASTEIGER

@<TRIPOS>ATOM
      1 C           0.8380    2.5156   18.5569 C.2     1  UNL1        0.2260
      2 O           1.8589    3.1235   19.4725 O.2     1  UNL1       -0.2748
      3 N           0.8620    1.0414   18.2803 N.am    1  UNL1       -0.2839
      4 H           0.1920    0.6424   17.6794 H       1  UNL1        0.1549
      5 C           1.9067    0.1753   18.9193 C.ar    1  UNL1        0.0504
      6 C           1.6769   -0.3896   20.2898 C.ar    1  UNL1        0.0160
      7 C           2.7217   -1.2557   20.9289 C.ar    1  UNL1        0.0200
      8 C           3.9961   -1.5570   20.1975 C.ar    1  UNL1        0.1104
      9 C           4.2259   -0.9921   18.8270 C.ar    1  UNL1        0.0200
     10 C           3.1812   -0.1260   18.1879 C.ar    1  UNL1        0.0160
     11 S           5.0408   -2.4231   20.8365 S.O2    1  UNL1        0.0274
     12 O           4.1201   -2.6809   21.9923 O.2     1  UNL1       -0.1642
     13 O           5.9615   -2.1652   19.6807 O.2     1  UNL1       -0.1642
     14 C           6.0856   -3.2892   21.4755 C.ar    1  UNL1        0.1103
     15 C           5.9986   -3.6147   22.9371 C.ar    1  UNL1        0.0187
     16 C           7.0434   -4.4808   23.5761 C.ar    1  UNL1        0.0013
     17 C           8.1752   -5.0214   22.7534 C.ar    1  UNL1        0.0001
     18 C           8.2622   -4.6959   21.2917 C.ar    1  UNL1        0.0013
     19 C           7.2174   -3.8298   20.6528 C.ar    1  UNL1        0.0187
     20 C          -1.6011    3.9341   17.8970 C.3     1  UNL1        0.0330
     21 C          -0.6218    4.3294   16.8318 C.3     1  UNL1        0.0143
     22 C          -0.2067    3.3817   17.9179 C.3     1  UNL1        0.0812
     23 N          -7.0830    4.2968   20.3088 N.pl3   1  UNL1       -0.3426
     24 C          -5.7125    4.2061   19.7058 C.ar    1  UNL1        0.1254
     25 C          -4.5773    3.6391   20.5056 C.ar    1  UNL1        0.0336
     26 C          -3.2068    3.5484   19.9027 C.ar    1  UNL1        0.0001
     27 C          -2.9715    4.0247   18.5000 C.ar    1  UNL1       -0.0028
     28 C          -4.1068    4.5918   17.7002 C.ar    1  UNL1        0.0960
     29 N          -5.4772    4.6825   18.3031 N.ar    1  UNL1       -0.2299
     30 H          -7.2374    3.9841   21.2295 H       1  UNL1        0.1437
     31 H          -7.8281    4.6690   19.7839 H       1  UNL1        0.1437
@<TRIPOS>BOND
     1    23    24    1
     2    24    25   ar
     3    25    26   ar
     4    26    27   ar
     5    20    27    1
     6    20    21    1
     7    21    22    1
     8    22     1    1
     9     1     2    2
    10     1     3   am
    11     3     5    1
    12     5     6   ar
    13     6     7   ar
    14     7     8   ar
    15     8    11    1
    16    11    12    2
    17    11    13    2
    18    11    14    1
    19    14    15   ar
    20    15    16   ar
    21    16    17   ar
    22    17    18   ar
    23    18    19   ar
    24     8     9   ar
    25     9    10   ar
    26    27    28   ar
    27    28    29   ar
    28    29    24   ar
    29    22    20    1
    30    10     5   ar
    31    19    14   ar
    32    23    30    1
    33    23    31    1
    34     3     4    1
@<TRIPOS>MOLECULE
*****
 31 34 0 0 0
SMALL
GASTEIGER

@<TRIPOS>ATOM
      1 C          -0.2468    2.8508   19.5164 C.2     1  UNL1        0.2260
      2 O           0.4716    3.0343   20.8204 O.2     1  UNL1       -0.2748
      3 N           0.2403    1.8324   18.5286 N.am    1  UNL1       -0.2839
      4 H          -0.2311    1.7121   17.6727 H       1  UNL1        0.1549
      5 C           1.4456    0.9975   18.8448 C.ar    1  UNL1        0.0504
      6 C           1.3084   -0.2206   19.7093 C.ar    1  UNL1        0.0160
      7 C           2.5138   -1.0556   20.0255 C.ar    1  UNL1        0.0200
      8 C           3.8564   -0.6724   19.4772 C.ar    1  UNL1        0.1104
      9 C           3.9936    0.5457   18.6127 C.ar    1  UNL1        0.0200
     10 C           2.7882    1.3807   18.2965 C.ar    1  UNL1        0.0160
     11 S           5.0617   -1.5073   19.7934 S.O2    1  UNL1        0.0274
     12 O           4.3717   -2.0414   21.0135 O.2     1  UNL1       -0.1642
     13 O           5.7517   -0.9733   18.5733 O.2     1  UNL1       -0.1642
     14 C           6.2671   -2.3423   20.1096 C.ar    1  UNL1        0.1103
     15 C           6.1832   -3.4151   21.1545 C.ar    1  UNL1        0.0187
     16 C           7.3886   -4.2500   21.4706 C.ar    1  UNL1        0.0013
     17 C           8.6779   -4.0120   20.7418 C.ar    1  UNL1        0.0001
     18 C           8.7618   -2.9392   19.6968 C.ar    1  UNL1        0.0013
     19 C           7.5564   -2.1043   19.3807 C.ar    1  UNL1        0.0187
     20 C          -2.8440    4.1358   19.5320 C.3     1  UNL1        0.0330
     21 C          -2.1479    4.6819   18.3207 C.3     1  UNL1        0.0143
     22 C          -1.4521    3.6858   19.2002 C.3     1  UNL1        0.0812
     23 N          -7.6660    3.9137   23.0955 N.pl3   1  UNL1       -0.3426
     24 C          -6.4605    3.9692   22.2046 C.ar    1  UNL1        0.1254
     25 C          -5.2038    3.2507   22.5976 C.ar    1  UNL1        0.0336
     26 C          -3.9983    3.3063   21.7067 C.ar    1  UNL1        0.0001
     27 C          -4.0495    4.0803   20.4229 C.ar    1  UNL1       -0.0028
     28 C          -5.3062    4.7987   20.0299 C.ar    1  UNL1        0.0960
     29 N          -6.5117    4.7432   20.9208 N.ar    1  UNL1       -0.2299
     30 H          -7.6324    3.4057   23.9381 H       1  UNL1        0.1437
     31 H          -8.4908    4.3853   22.8376 H       1  UNL1        0.1437
@<TRIPOS>BOND
     1    23    24    1
     2    24    25   ar
     3    25    26   ar
     4    26    27   ar
     5    20    27    1
     6    20    21    1
     7    21    22    1
     8    22     1    1
     9     1     2    2
    10     1     3   am
    11     3     5    1
    12     5     6   ar
    13     6     7   ar
    14     7     8   ar
    15     8    11    1
    16    11    12    2
    17    11    13    2
    18    11    14    1
    19    14    15   ar
    20    15    16   ar
    21    16    17   ar
    22    17    18   ar
    23    18    19   ar
    24     8     9   ar
    25     9    10   ar
    26    27    28   ar
    27    28    29   ar
    28    29    24   ar
    29    22    20    1
    30    10     5   ar
    31    19    14   ar
    32    23    30    1
    33    23    31    1
    34     3     4    1
@<TRIPOS>MOLECULE
*****
 31 34 0 0 0
SMALL
GASTEIGER

@<TRIPOS>ATOM
      1 C           1.1624    3.2981   19.7490 C.2     1  UNL1        0.2260
      2 O           0.8772    4.7702   19.7897 O.2     1  UNL1       -0.2748
      3 N           0.2302    2.3347   20.4220 N.am    1  UNL1       -0.2839
      4 H           0.4175    1.3685   20.3954 H       1  UNL1        0.1549
      5 C          -0.9871    2.8433   21.1356 C.ar    1  UNL1        0.0504
      6 C          -2.2745    3.0241   20.3871 C.ar    1  UNL1        0.0160
      7 C          -3.4918    3.5327   21.1007 C.ar    1  UNL1        0.0200
      8 C          -3.4220    3.8606   22.5628 C.ar    1  UNL1        0.1104
      9 C          -2.1347    3.6798   23.3112 C.ar    1  UNL1        0.0200
     10 C          -0.9173    3.1712   22.5977 C.ar    1  UNL1        0.0160
     11 S          -4.6393    4.3692   23.2763 S.O2    1  UNL1        0.0274
     12 O          -5.3983    3.1465   22.8531 O.2     1  UNL1       -0.1642
     13 O          -3.8804    5.5919   23.6995 O.2     1  UNL1       -0.1642
     14 C          -5.8568    4.8779   23.9900 C.ar    1  UNL1        0.1103
     15 C          -5.7108    5.6284   25.2805 C.ar    1  UNL1        0.0187
     16 C          -6.9282    6.1370   25.9940 C.ar    1  UNL1        0.0013
     17 C          -8.2915    5.8952   25.4171 C.ar    1  UNL1        0.0001
     18 C          -8.4375    5.1448   24.1266 C.ar    1  UNL1        0.0013
     19 C          -7.2201    4.6361   23.4130 C.ar    1  UNL1        0.0187
     20 C           3.2534    1.6469   18.6095 C.3     1  UNL1        0.0330
     21 C           3.6149    3.0511   18.2254 C.3     1  UNL1        0.0143
     22 C           2.3798    2.7895   19.0354 C.3     1  UNL1        0.0812
     23 N           4.4359   -4.2346   18.5129 N.pl3   1  UNL1       -0.3426
     24 C           4.1402   -2.7642   18.5371 C.ar    1  UNL1        0.1254
     25 C           3.2773   -2.1904   19.6215 C.ar    1  UNL1        0.0336
     26 C           2.9817   -0.7200   19.6456 C.ar    1  UNL1        0.0001
     27 C           3.5490    0.1766   18.5854 C.ar    1  UNL1       -0.0028
     28 C           4.4119   -0.3972   17.5009 C.ar    1  UNL1        0.0960
     29 N           4.7076   -1.8676   17.4768 N.ar    1  UNL1       -0.2299
     30 H           4.0635   -4.8230   19.2088 H       1  UNL1        0.1437
     31 H           5.0023   -4.6112   17.8011 H       1  UNL1        0.1437
@<TRIPOS>BOND
     1    23    24    1
     2    24    25   ar
     3    25    26   ar
     4    26    27   ar
     5    20    27    1
     6    20    21    1
     7    21    22    1
     8    22     1    1
     9     1     2    2
    10     1     3   am
    11     3     5    1
    12     5     6   ar
    13     6     7   ar
    14     7     8   ar
    15     8    11    1
    16    11    12    2
    17    11    13    2
    18    11    14    1
    19    14    15   ar
    20    15    16   ar
    21    16    17   ar
    22    17    18   ar
    23    18    19   ar
    24     8     9   ar
    25     9    10   ar
    26    27    28   ar
    27    28    29   ar
    28    29    24   ar
    29    22    20    1
    30    10     5   ar
    31    19    14   ar
    32    23    30    1
    33    23    31    1
    34     3     4    1
