@<TRIPOS>MOLECULE
*****
 19 21 0 0 0
SMALL
GASTEIGER

@<TRIPOS>ATOM
      1 C          -2.0541  -19.0205   21.1845 C.3     1  UNL1        0.0952
      2 C          -3.3439  -18.4661   21.7128 C.2     1  UNL1        0.2298
      3 O          -3.3375  -17.2250   22.5552 O.2     1  UNL1       -0.2745
      4 N          -4.6400  -19.1528   21.3988 N.am    1  UNL1       -0.2586
      5 C          -4.8023  -20.3950   20.5739 C.3     1  UNL1        0.1029
      6 C          -6.2640  -20.7277   20.5198 C.3     1  UNL1        0.0495
      7 C          -7.0050  -19.6911   21.3112 C.ar    1  UNL1       -0.0068
      8 C          -8.4639  -19.5077   21.6074 C.ar    1  UNL1       -0.0029
      9 C          -8.9192  -18.3510   22.4467 C.ar    1  UNL1        0.0010
     10 C          -7.9155  -17.3776   22.9900 C.ar    1  UNL1        0.0013
     11 C          -6.4566  -17.5609   22.6938 C.ar    1  UNL1        0.0146
     12 C          -6.0013  -18.7177   21.8544 C.ar    1  UNL1        0.0499
     13 C         -10.3783  -18.1676   22.7429 C.ar    1  UNL1        0.0152
     14 C         -11.2549  -17.4362   21.7700 C.ar    1  UNL1        0.0985
     15 N         -12.7139  -17.2528   22.0661 N.ar    1  UNL1       -0.2423
     16 C         -13.2963  -17.8008   23.3352 C.ar    1  UNL1        0.0986
     17 C         -12.4196  -18.5321   24.3082 C.ar    1  UNL1        0.0164
     18 C         -10.9606  -18.7155   24.0120 C.ar    1  UNL1       -0.0188
     19 C         -10.0840  -19.4468   24.9850 C.3     1  UNL1        0.0311
@<TRIPOS>BOND
     1     1     2    1
     2     2     3    2
     3     2     4   am
     4     4     5    1
     5     5     6    1
     6     6     7    1
     7     7     8   ar
     8     8     9   ar
     9     9    13    1
    10    13    14   ar
    11    14    15   ar
    12    15    16   ar
    13    16    17   ar
    14    17    18   ar
    15    18    19    1
    16     9    10   ar
    17    10    11   ar
    18    11    12   ar
    19    12     4    1
    20    12     7   ar
    21    18    13   ar
@<TRIPOS>MOLECULE
*****
 19 21 0 0 0
SMALL
GASTEIGER

@<TRIPOS>ATOM
      1 C         -13.6559  -17.8368   23.6710 C.3     1  UNL1        0.0952
      2 C         -12.3053  -17.6787   23.0376 C.2     1  UNL1        0.2298
      3 O         -12.0390  -16.5245   22.1174 O.2     1  UNL1       -0.2745
      4 N         -11.2211  -18.6749   23.3244 N.am    1  UNL1       -0.2586
      5 C         -11.3391  -19.8733   24.2187 C.3     1  UNL1        0.1029
      6 C         -10.0196  -20.5866   24.2143 C.3     1  UNL1        0.0495
      7 C          -9.0861  -19.8289   23.3174 C.ar    1  UNL1       -0.0068
      8 C          -7.6558  -20.0622   22.9304 C.ar    1  UNL1       -0.0029
      9 C          -6.9681  -19.1140   21.9934 C.ar    1  UNL1        0.0010
     10 C          -7.7107  -17.9325   21.4435 C.ar    1  UNL1        0.0013
     11 C          -9.1410  -17.6992   21.8304 C.ar    1  UNL1        0.0146
     12 C          -9.8287  -18.6474   22.7674 C.ar    1  UNL1        0.0499
     13 C          -5.5377  -19.3473   21.6064 C.ar    1  UNL1        0.0152
     14 C          -4.4384  -18.6241   22.3265 C.ar    1  UNL1        0.0985
     15 N          -3.0081  -18.8573   21.9395 N.ar    1  UNL1       -0.2423
     16 C          -2.6771  -19.8138   20.8324 C.ar    1  UNL1        0.0986
     17 C          -3.7764  -20.5370   20.1123 C.ar    1  UNL1        0.0164
     18 C          -5.2068  -20.3037   20.4994 C.ar    1  UNL1       -0.0188
     19 C          -6.3061  -21.0269   19.7793 C.3     1  UNL1        0.0311
@<TRIPOS>BOND
     1     1     2    1
     2     2     3    2
     3     2     4   am
     4     4     5    1
     5     5     6    1
     6     6     7    1
     7     7     8   ar
     8     8     9   ar
     9     9    13    1
    10    13    14   ar
    11    14    15   ar
    12    15    16   ar
    13    16    17   ar
    14    17    18   ar
    15    18    19    1
    16     9    10   ar
    17    10    11   ar
    18    11    12   ar
    19    12     4    1
    20    12     7   ar
    21    18    13   ar
@<TRIPOS>MOLECULE
*****
 19 21 0 0 0
SMALL
GASTEIGER

@<TRIPOS>ATOM
      1 C          -2.0447  -19.6323   21.1838 C.3     1  UNL1        0.0952
      2 C          -3.5406  -19.7238   21.1196 C.2     1  UNL1        0.2298
      3 O          -4.1922  -20.7426   20.2324 O.2     1  UNL1       -0.2745
      4 N          -4.3847  -18.7965   21.9427 N.am    1  UNL1       -0.2586
      5 C          -3.8778  -17.7328   22.8709 C.3     1  UNL1        0.1029
      6 C          -5.0637  -17.0490   23.4840 C.3     1  UNL1        0.0495
      7 C          -6.3036  -17.6900   22.9346 C.ar    1  UNL1       -0.0068
      8 C          -7.7606  -17.4298   23.1788 C.ar    1  UNL1       -0.0029
      9 C          -8.7978  -18.2496   22.4703 C.ar    1  UNL1        0.0010
     10 C          -8.3781  -19.3297   21.5178 C.ar    1  UNL1        0.0013
     11 C          -6.9212  -19.5899   21.2737 C.ar    1  UNL1        0.0146
     12 C          -5.8840  -18.7701   21.9821 C.ar    1  UNL1        0.0499
     13 C         -10.2548  -17.9895   22.7144 C.ar    1  UNL1        0.0152
     14 C         -10.9945  -17.0046   21.8583 C.ar    1  UNL1        0.0985
     15 N         -12.4514  -16.7444   22.1023 N.ar    1  UNL1       -0.2423
     16 C         -13.1687  -17.4691   23.2026 C.ar    1  UNL1        0.0986
     17 C         -12.4291  -18.4539   24.0587 C.ar    1  UNL1        0.0164
     18 C         -10.9720  -18.7141   23.8146 C.ar    1  UNL1       -0.0188
     19 C         -10.2324  -19.6989   24.6707 C.3     1  UNL1        0.0311
@<TRIPOS>BOND
     1     1     2    1
     2     2     3    2
     3     2     4   am
     4     4     5    1
     5     5     6    1
     6     6     7    1
     7     7     8   ar
     8     8     9   ar
     9     9    13    1
    10    13    14   ar
    11    14    15   ar
    12    15    16   ar
    13    16    17   ar
    14    17    18   ar
    15    18    19    1
    16     9    10   ar
    17    10    11   ar
    18    11    12   ar
    19    12     4    1
    20    12     7   ar
    21    18    13   ar
@<TRIPOS>MOLECULE
*****
 19 21 0 0 0
SMALL
GASTEIGER

@<TRIPOS>ATOM
      1 C          -2.0989  -19.2575   21.3748 C.3     1  UNL1        0.0952
      2 C          -3.5885  -19.4323   21.3516 C.2     1  UNL1        0.2298
      3 O          -4.2028  -20.5230   20.5253 O.2     1  UNL1       -0.2745
      4 N          -4.4638  -18.5163   22.1548 N.am    1  UNL1       -0.2586
      5 C          -3.9955  -17.3868   23.0236 C.3     1  UNL1        0.1029
      6 C          -5.2033  -16.7415   23.6358 C.3     1  UNL1        0.0495
      7 C          -6.4180  -17.4722   23.1454 C.ar    1  UNL1       -0.0068
      8 C          -7.8812  -17.2805   23.4140 C.ar    1  UNL1       -0.0029
      9 C          -8.8874  -18.1856   22.7673 C.ar    1  UNL1        0.0010
     10 C          -8.4303  -19.2825   21.8519 C.ar    1  UNL1        0.0013
     11 C          -6.9671  -19.4743   21.5833 C.ar    1  UNL1        0.0146
     12 C          -5.9610  -18.5691   22.2300 C.ar    1  UNL1        0.0499
     13 C         -10.3507  -17.9939   23.0359 C.ar    1  UNL1        0.0152
     14 C         -11.0239  -18.7827   24.1197 C.ar    1  UNL1        0.0985
     15 N         -12.4871  -18.5910   24.3883 N.ar    1  UNL1       -0.2423
     16 C         -13.2772  -17.6105   23.5732 C.ar    1  UNL1        0.0986
     17 C         -12.6040  -16.8217   22.4894 C.ar    1  UNL1        0.0164
     18 C         -11.1407  -17.0134   22.2208 C.ar    1  UNL1       -0.0188
     19 C         -10.4675  -16.2246   21.1370 C.3     1  UNL1        0.0311
@<TRIPOS>BOND
     1     1     2    1
     2     2     3    2
     3     2     4   am
     4     4     5    1
     5     5     6    1
     6     6     7    1
     7     7     8   ar
     8     8     9   ar
     9     9    13    1
    10    13    14   ar
    11    14    15   ar
    12    15    16   ar
    13    16    17   ar
    14    17    18   ar
    15    18    19    1
    16     9    10   ar
    17    10    11   ar
    18    11    12   ar
    19    12     4    1
    20    12     7   ar
    21    18    13   ar
@<TRIPOS>MOLECULE
*****
 19 21 0 0 0
SMALL
GASTEIGER

@<TRIPOS>ATOM
      1 C         -13.4143  -17.7687   23.8363 C.3     1  UNL1        0.0952
      2 C         -12.1002  -18.4733   23.6722 C.2     1  UNL1        0.2298
      3 O         -11.9219  -19.8623   24.2095 O.2     1  UNL1       -0.2745
      4 N         -10.9647  -17.7889   22.9708 N.am    1  UNL1       -0.2586
      5 C         -10.9943  -16.4086   22.3842 C.3     1  UNL1        0.1029
      6 C          -9.6480  -16.1313   21.7837 C.3     1  UNL1        0.0495
      7 C          -8.7863  -17.3401   21.9991 C.ar    1  UNL1       -0.0068
      8 C          -7.3659  -17.6402   21.6221 C.ar    1  UNL1       -0.0029
      9 C          -6.7593  -18.9649   21.9787 C.ar    1  UNL1        0.0010
     10 C          -7.5730  -19.9894   22.7123 C.ar    1  UNL1        0.0013
     11 C          -8.9934  -19.6892   23.0894 C.ar    1  UNL1        0.0146
     12 C          -9.6001  -18.3645   22.7328 C.ar    1  UNL1        0.0499
     13 C          -5.3388  -19.2651   21.6016 C.ar    1  UNL1        0.0152
     14 C          -5.0457  -20.2168   20.4798 C.ar    1  UNL1        0.0985
     15 N          -3.6253  -20.5171   20.1027 N.ar    1  UNL1       -0.2423
     16 C          -2.4979  -19.8657   20.8474 C.ar    1  UNL1        0.0986
     17 C          -2.7909  -18.9140   21.9692 C.ar    1  UNL1        0.0164
     18 C          -4.2114  -18.6138   22.3463 C.ar    1  UNL1       -0.0188
     19 C          -4.5044  -17.6621   23.4681 C.3     1  UNL1        0.0311
@<TRIPOS>BOND
     1     1     2    1
     2     2     3    2
     3     2     4   am
     4     4     5    1
     5     5     6    1
     6     6     7    1
     7     7     8   ar
     8     8     9   ar
     9     9    13    1
    10    13    14   ar
    11    14    15   ar
    12    15    16   ar
    13    16    17   ar
    14    17    18   ar
    15    18    19    1
    16     9    10   ar
    17    10    11   ar
    18    11    12   ar
    19    12     4    1
    20    12     7   ar
    21    18    13   ar
@<TRIPOS>MOLECULE
*****
 19 21 0 0 0
SMALL
GASTEIGER

@<TRIPOS>ATOM
      1 C           0.0425  -17.7934   20.1023 C.3     1  UNL1        0.0952
      2 C          -1.3860  -18.1827   19.8614 C.2     1  UNL1        0.2298
      3 O          -1.8363  -18.5669   18.4832 O.2     1  UNL1       -0.2745
      4 N          -2.3640  -18.1878   20.9987 N.am    1  UNL1       -0.2586
      5 C          -2.0613  -17.8295   22.4234 C.3     1  UNL1        0.1029
      6 C          -3.3267  -17.9724   23.2162 C.3     1  UNL1        0.0495
      7 C          -4.4114  -18.4190   22.2813 C.ar    1  UNL1       -0.0068
      8 C          -5.8640  -18.7216   22.5010 C.ar    1  UNL1       -0.0029
      9 C          -6.7217  -19.1574   21.3502 C.ar    1  UNL1        0.0010
     10 C          -6.1267  -19.2905   19.9797 C.ar    1  UNL1        0.0013
     11 C          -4.6741  -18.9879   19.7600 C.ar    1  UNL1        0.0146
     12 C          -3.8165  -18.5522   20.9108 C.ar    1  UNL1        0.0499
     13 C          -8.1744  -19.4600   21.5698 C.ar    1  UNL1        0.0152
     14 C          -8.6983  -19.6520   22.9621 C.ar    1  UNL1        0.0985
     15 N         -10.1509  -19.9546   23.1818 N.ar    1  UNL1       -0.2423
     16 C         -11.0797  -20.0653   22.0091 C.ar    1  UNL1        0.0986
     17 C         -10.5558  -19.8733   20.6167 C.ar    1  UNL1        0.0164
     18 C          -9.1031  -19.5707   20.3971 C.ar    1  UNL1       -0.0188
     19 C          -8.5791  -19.3787   19.0047 C.3     1  UNL1        0.0311
@<TRIPOS>BOND
     1     1     2    1
     2     2     3    2
     3     2     4   am
     4     4     5    1
     5     5     6    1
     6     6     7    1
     7     7     8   ar
     8     8     9   ar
     9     9    13    1
    10    13    14   ar
    11    14    15   ar
    12    15    16   ar
    13    16    17   ar
    14    17    18   ar
    15    18    19    1
    16     9    10   ar
    17    10    11   ar
    18    11    12   ar
    19    12     4    1
    20    12     7   ar
    21    18    13   ar
@<TRIPOS>MOLECULE
*****
 19 21 0 0 0
SMALL
GASTEIGER

@<TRIPOS>ATOM
      1 C          -1.9719    4.8898   19.5446 C.3     1  UNL1        0.0952
      2 C          -1.4237    3.5264   19.8464 C.2     1  UNL1        0.2298
      3 O          -2.2678    2.5232   20.5749 O.2     1  UNL1       -0.2745
      4 N          -0.0315    3.1666   19.4195 N.am    1  UNL1       -0.2586
      5 C           0.9251    4.0605   18.6874 C.3     1  UNL1        0.1029
      6 C           2.1963    3.2959   18.4653 C.3     1  UNL1        0.0495
      7 C           2.0255    1.9295   19.0601 C.ar    1  UNL1       -0.0068
      8 C           2.9458    0.7478   19.1410 C.ar    1  UNL1       -0.0029
      9 C           2.4892   -0.5138   19.8115 C.ar    1  UNL1        0.0010
     10 C           1.1123   -0.5938   20.4013 C.ar    1  UNL1        0.0013
     11 C           0.1920    0.5879   20.3205 C.ar    1  UNL1        0.0146
     12 C           0.6486    1.8496   19.6499 C.ar    1  UNL1        0.0499
     13 C           3.4095   -1.6956   19.8924 C.ar    1  UNL1        0.0152
     14 C           3.7871   -2.4388   18.6453 C.ar    1  UNL1        0.0985
     15 N           4.7074   -3.6205   18.7261 N.ar    1  UNL1       -0.2423
     16 C           5.2501   -4.0591   20.0540 C.ar    1  UNL1        0.0986
     17 C           4.8725   -3.3160   21.3010 C.ar    1  UNL1        0.0164
     18 C           3.9522   -2.1342   21.2202 C.ar    1  UNL1       -0.0188
     19 C           3.5746   -1.3910   22.4672 C.3     1  UNL1        0.0311
@<TRIPOS>BOND
     1     1     2    1
     2     2     3    2
     3     2     4   am
     4     4     5    1
     5     5     6    1
     6     6     7    1
     7     7     8   ar
     8     8     9   ar
     9     9    13    1
    10    13    14   ar
    11    14    15   ar
    12    15    16   ar
    13    16    17   ar
    14    17    18   ar
    15    18    19    1
    16     9    10   ar
    17    10    11   ar
    18    11    12   ar
    19    12     4    1
    20    12     7   ar
    21    18    13   ar
@<TRIPOS>MOLECULE
*****
 19 21 0 0 0
SMALL
GASTEIGER

@<TRIPOS>ATOM
      1 C           8.4026   -7.8510   25.9919 C.3     1  UNL1        0.0952
      2 C           8.1429   -7.3262   27.3729 C.2     1  UNL1        0.2298
      3 O           8.4777   -8.1661   28.5697 O.2     1  UNL1       -0.2745
      4 N           7.5485   -5.9613   27.5571 N.am    1  UNL1       -0.2586
      5 C           7.1640   -5.0119   26.4613 C.3     1  UNL1        0.1029
      6 C           6.6121   -3.7702   27.0964 C.3     1  UNL1        0.0495
      7 C           6.6554   -3.9521   28.5847 C.ar    1  UNL1       -0.0068
      8 C           6.2426   -3.0596   29.7173 C.ar    1  UNL1       -0.0029
      9 C           6.4086   -3.5214   31.1348 C.ar    1  UNL1        0.0010
     10 C           6.9874   -4.8756   31.4195 C.ar    1  UNL1        0.0013
     11 C           7.4001   -5.7681   30.2868 C.ar    1  UNL1        0.0146
     12 C           7.2341   -5.3064   28.8694 C.ar    1  UNL1        0.0499
     13 C           5.9959   -2.6289   32.2676 C.ar    1  UNL1        0.0152
     14 C           4.6051   -2.7161   32.8226 C.ar    1  UNL1        0.0985
     15 N           4.1923   -1.8236   33.9554 N.ar    1  UNL1       -0.2423
     16 C           5.1703   -0.8439   34.5331 C.ar    1  UNL1        0.0986
     17 C           6.5611   -0.7567   33.9780 C.ar    1  UNL1        0.0164
     18 C           6.9739   -1.6492   32.8452 C.ar    1  UNL1       -0.0188
     19 C           8.3647   -1.5620   32.2902 C.3     1  UNL1        0.0311
@<TRIPOS>BOND
     1     1     2    1
     2     2     3    2
     3     2     4   am
     4     4     5    1
     5     5     6    1
     6     6     7    1
     7     7     8   ar
     8     8     9   ar
     9     9    13    1
    10    13    14   ar
    11    14    15   ar
    12    15    16   ar
    13    16    17   ar
    14    17    18   ar
    15    18    19    1
    16     9    10   ar
    17    10    11   ar
    18    11    12   ar
    19    12     4    1
    20    12     7   ar
    21    18    13   ar
@<TRIPOS>MOLECULE
*****
 19 21 0 0 0
SMALL
GASTEIGER

@<TRIPOS>ATOM
      1 C          -1.5229    4.3850   22.5566 C.3     1  UNL1        0.0952
      2 C          -1.0426    3.1463   21.8599 C.2     1  UNL1        0.2298
      3 O          -1.9275    2.4539   20.8663 O.2     1  UNL1       -0.2745
      4 N           0.3225    2.6002   22.1569 N.am    1  UNL1       -0.2586
      5 C           1.3139    3.1812   23.1210 C.3     1  UNL1        0.1029
      6 C           2.5400    2.3173   23.1019 C.3     1  UNL1        0.0495
      7 C           2.3064    1.2024   22.1260 C.ar    1  UNL1       -0.0068
      8 C           3.1645    0.0506   21.6938 C.ar    1  UNL1       -0.0029
      9 C           2.6521   -0.9264   20.6775 C.ar    1  UNL1        0.0010
     10 C           1.2816   -0.7515   20.0934 C.ar    1  UNL1        0.0013
     11 C           0.4235    0.4003   20.5257 C.ar    1  UNL1        0.0146
     12 C           0.9359    1.3773   21.5420 C.ar    1  UNL1        0.0499
     13 C           3.5102   -2.0783   20.2452 C.ar    1  UNL1        0.0152
     14 C           3.7899   -3.2037   21.1966 C.ar    1  UNL1        0.0985
     15 N           4.6480   -4.3555   20.7644 N.ar    1  UNL1       -0.2423
     16 C           5.2265   -4.3820   19.3806 C.ar    1  UNL1        0.0986
     17 C           4.9468   -3.2566   18.4292 C.ar    1  UNL1        0.0164
     18 C           4.0887   -2.1047   18.8615 C.ar    1  UNL1       -0.0188
     19 C           3.8090   -0.9793   17.9100 C.3     1  UNL1        0.0311
@<TRIPOS>BOND
     1     1     2    1
     2     2     3    2
     3     2     4   am
     4     4     5    1
     5     5     6    1
     6     6     7    1
     7     7     8   ar
     8     8     9   ar
     9     9    13    1
    10    13    14   ar
    11    14    15   ar
    12    15    16   ar
    13    16    17   ar
    14    17    18   ar
    15    18    19    1
    16     9    10   ar
    17    10    11   ar
    18    11    12   ar
    19    12     4    1
    20    12     7   ar
    21    18    13   ar
