@<TRIPOS>MOLECULE
*****
 30 32 0 0 0
SMALL
GASTEIGER

@<TRIPOS>ATOM
      1 N          -6.6037  -19.3568   21.4987 N.am    1  UNL1       -0.2438
      2 C          -8.0388  -19.7854   21.4169 C.3     1  UNL1        0.1009
      3 C          -9.0886  -19.0423   22.1887 C.3     1  UNL1        0.0661
      4 C          -8.7033  -17.8707   23.0424 C.3     1  UNL1        0.1582
      5 O          -7.2681  -17.4421   23.1242 O.3     1  UNL1       -0.4375
      6 C          -6.2183  -18.1851   22.3524 C.2     1  UNL1        0.4051
      7 O          -4.7832  -17.7566   22.4342 O.2     1  UNL1       -0.2262
      8 C         -10.1831  -17.8953   23.2865 C.ar    1  UNL1        0.0139
      9 C         -10.7508  -18.7693   24.3653 C.ar    1  UNL1        0.0014
     10 C         -12.2307  -18.7939   24.6094 C.ar    1  UNL1        0.0294
     11 C         -13.1427  -17.9446   23.7746 C.ar    1  UNL1        0.1401
     12 F         -14.6225  -17.9692   24.0187 F       1  UNL1       -0.2042
     13 C         -12.5750  -17.0707   22.6958 C.ar    1  UNL1        0.0294
     14 C         -11.0952  -17.0460   22.4517 C.ar    1  UNL1        0.0014
     15 C          -5.8585  -21.4543   20.1588 C.3     1  UNL1        0.0265
     16 C          -5.5539  -20.0999   20.7268 C.3     1  UNL1        0.1011
     17 C          -4.1993  -19.4885   20.5230 C.ar    1  UNL1       -0.0041
     18 C          -3.0764  -19.8242   21.4591 C.ar    1  UNL1       -0.0022
     19 C          -1.7219  -19.2128   21.2552 C.ar    1  UNL1        0.0064
     20 C          -1.4904  -18.2657   20.1153 C.ar    1  UNL1        0.0345
     21 BR         -0.1359  -17.6543   19.9115 Br      1  UNL1       -0.0490
     22 C          -2.6134  -17.9299   19.1793 C.ar    1  UNL1        0.0064
     23 C          -3.9678  -18.5414   19.3831 C.ar    1  UNL1       -0.0022
     24 C          -8.8319  -16.7076   23.9808 C.3     1  UNL1        0.0541
     25 C          -7.8886  -15.5467   23.8701 C.3     1  UNL1        0.0887
     26 C          -7.0845  -15.1173   25.0613 C.2     1  UNL1        0.2195
     27 N          -7.7222  -15.0676   26.4181 N.am    1  UNL1       -0.3288
     28 O          -5.6428  -14.7378   24.8957 O.2     1  UNL1       -0.2753
     29 H          -8.6684  -15.3167   26.5268 H       1  UNL1        0.1449
     30 H          -7.1944  -14.7858   27.2000 H       1  UNL1        0.1449
@<TRIPOS>BOND
     1    16    15    1
     2    16    17    1
     3    17    18   ar
     4    18    19   ar
     5    19    20   ar
     6    20    21    1
     7    20    22   ar
     8    22    23   ar
     9    16     1    1
    10     1     2    1
    11     2     3    1
    12     3     4    1
    13     4    24    1
    14    24    25    1
    15    25    26    1
    16    26    27   am
    17    26    28    2
    18     4     8    1
    19     8     9   ar
    20     9    10   ar
    21    10    11   ar
    22    11    12    1
    23    11    13   ar
    24    13    14   ar
    25     4     5    1
    26     5     6    1
    27     6     7    2
    28    23    17   ar
    29     6     1   am
    30    14     8   ar
    31    27    29    1
    32    27    30    1
@<TRIPOS>MOLECULE
*****
 30 32 0 0 0
SMALL
GASTEIGER

@<TRIPOS>ATOM
      1 N          -7.4774  -19.8242   20.9651 N.am    1  UNL1       -0.2438
      2 C          -8.0607  -19.9010   22.3449 C.3     1  UNL1        0.1009
      3 C          -9.4510  -19.3992   22.6004 C.3     1  UNL1        0.0661
      4 C         -10.2581  -18.8208   21.4761 C.3     1  UNL1        0.1582
      5 O          -9.6748  -18.7440   20.0963 O.3     1  UNL1       -0.4375
      6 C          -8.2845  -19.2458   19.8408 C.2     1  UNL1        0.4051
      7 O          -7.7012  -19.1690   18.4610 O.2     1  UNL1       -0.2262
      8 C         -11.2401  -18.6796   22.6012 C.ar    1  UNL1        0.0139
      9 C         -12.5635  -18.0151   22.3625 C.ar    1  UNL1        0.0014
     10 C         -13.5456  -17.8739   23.4876 C.ar    1  UNL1        0.0294
     11 C         -13.2041  -18.3972   24.8513 C.ar    1  UNL1        0.1401
     12 F         -14.1861  -18.2559   25.9763 F       1  UNL1       -0.2042
     13 C         -11.8806  -19.0616   25.0899 C.ar    1  UNL1        0.0294
     14 C         -10.8986  -19.2028   23.9648 C.ar    1  UNL1        0.0014
     15 C          -5.8666  -21.7563   20.3153 C.3     1  UNL1        0.0265
     16 C          -6.0871  -20.3260   20.7096 C.3     1  UNL1        0.1011
     17 C          -4.9173  -19.3973   20.8484 C.ar    1  UNL1       -0.0041
     18 C          -4.5219  -18.8862   22.2021 C.ar    1  UNL1       -0.0022
     19 C          -3.3522  -17.9576   22.3408 C.ar    1  UNL1        0.0064
     20 C          -2.5778  -17.5401   21.1259 C.ar    1  UNL1        0.0345
     21 BR         -1.4080  -16.6114   21.2647 Br      1  UNL1       -0.0490
     22 C          -2.9732  -18.0512   19.7722 C.ar    1  UNL1        0.0064
     23 C          -4.1429  -18.9798   19.6335 C.ar    1  UNL1       -0.0022
     24 C         -11.4062  -18.1933   20.7425 C.3     1  UNL1        0.0541
     25 C         -11.1578  -17.4206   19.4811 C.3     1  UNL1        0.0887
     26 C         -11.5222  -15.9674   19.4076 C.2     1  UNL1        0.2195
     27 N         -12.9596  -15.5490   19.5024 N.am    1  UNL1       -0.3288
     28 O         -10.4494  -14.9327   19.2392 O.2     1  UNL1       -0.2753
     29 H         -13.6637  -16.2281   19.6130 H       1  UNL1        0.1449
     30 H         -13.1988  -14.5952   19.4542 H       1  UNL1        0.1449
@<TRIPOS>BOND
     1    16    15    1
     2    16    17    1
     3    17    18   ar
     4    18    19   ar
     5    19    20   ar
     6    20    21    1
     7    20    22   ar
     8    22    23   ar
     9    16     1    1
    10     1     2    1
    11     2     3    1
    12     3     4    1
    13     4    24    1
    14    24    25    1
    15    25    26    1
    16    26    27   am
    17    26    28    2
    18     4     8    1
    19     8     9   ar
    20     9    10   ar
    21    10    11   ar
    22    11    12    1
    23    11    13   ar
    24    13    14   ar
    25     4     5    1
    26     5     6    1
    27     6     7    2
    28    23    17   ar
    29     6     1   am
    30    14     8   ar
    31    27    29    1
    32    27    30    1
@<TRIPOS>MOLECULE
*****
 30 32 0 0 0
SMALL
GASTEIGER

@<TRIPOS>ATOM
      1 N          -6.2861  -19.1132   21.0525 N.am    1  UNL1       -0.2438
      2 C          -5.9151  -18.5722   22.4014 C.3     1  UNL1        0.1009
      3 C          -6.9275  -17.8180   23.2114 C.3     1  UNL1        0.0661
      4 C          -8.3109  -17.6046   22.6725 C.3     1  UNL1        0.1582
      5 O          -8.6821  -18.1456   21.3235 O.3     1  UNL1       -0.4375
      6 C          -7.6697  -18.8998   20.5135 C.2     1  UNL1        0.4051
      7 O          -8.0407  -19.4408   19.1646 O.2     1  UNL1       -0.2262
      8 C          -8.4354  -16.9052   23.9937 C.ar    1  UNL1        0.0139
      9 C          -9.0878  -17.6003   25.1517 C.ar    1  UNL1        0.0014
     10 C          -9.2122  -16.9010   26.4729 C.ar    1  UNL1        0.0294
     11 C          -8.6842  -15.5065   26.6359 C.ar    1  UNL1        0.1401
     12 F          -8.8086  -14.8071   27.9571 F       1  UNL1       -0.2042
     13 C          -8.0317  -14.8114   25.4778 C.ar    1  UNL1        0.0294
     14 C          -7.9073  -15.5108   24.1567 C.ar    1  UNL1        0.0014
     15 C          -5.6628  -21.1422   19.5543 C.3     1  UNL1        0.0265
     16 C          -5.2737  -19.8674   20.2425 C.3     1  UNL1        0.1011
     17 C          -3.8722  -19.3469   20.1207 C.ar    1  UNL1       -0.0041
     18 C          -3.5248  -18.3758   19.0316 C.ar    1  UNL1       -0.0022
     19 C          -2.1233  -17.8553   18.9098 C.ar    1  UNL1        0.0064
     20 C          -1.0692  -18.3060   19.8771 C.ar    1  UNL1        0.0345
     21 BR          0.3324  -17.7855   19.7553 Br      1  UNL1       -0.0490
     22 C          -1.4166  -19.2771   20.9662 C.ar    1  UNL1        0.0064
     23 C          -2.8181  -19.7976   21.0880 C.ar    1  UNL1       -0.0022
     24 C          -9.7377  -17.1484   22.5924 C.3     1  UNL1        0.0541
     25 C         -10.2106  -16.3710   21.4000 C.3     1  UNL1        0.0887
     26 C         -11.2931  -16.9274   20.5232 C.2     1  UNL1        0.2195
     27 N         -11.0283  -18.1423   19.6841 N.am    1  UNL1       -0.3288
     28 O         -12.6403  -16.2689   20.4855 O.2     1  UNL1       -0.2753
     29 H         -10.1441  -18.5744   19.7089 H       1  UNL1        0.1449
     30 H         -11.7387  -18.5075   19.1086 H       1  UNL1        0.1449
@<TRIPOS>BOND
     1    16    15    1
     2    16    17    1
     3    17    18   ar
     4    18    19   ar
     5    19    20   ar
     6    20    21    1
     7    20    22   ar
     8    22    23   ar
     9    16     1    1
    10     1     2    1
    11     2     3    1
    12     3     4    1
    13     4    24    1
    14    24    25    1
    15    25    26    1
    16    26    27   am
    17    26    28    2
    18     4     8    1
    19     8     9   ar
    20     9    10   ar
    21    10    11   ar
    22    11    12    1
    23    11    13   ar
    24    13    14   ar
    25     4     5    1
    26     5     6    1
    27     6     7    2
    28    23    17   ar
    29     6     1   am
    30    14     8   ar
    31    27    29    1
    32    27    30    1
@<TRIPOS>MOLECULE
*****
 30 32 0 0 0
SMALL
GASTEIGER

@<TRIPOS>ATOM
      1 N          -7.5019  -18.8405   20.9644 N.am    1  UNL1       -0.2438
      2 C          -6.3331  -19.0669   20.0520 C.3     1  UNL1        0.1009
      3 C          -4.9517  -18.6841   20.4937 C.3     1  UNL1        0.0661
      4 C          -4.7391  -18.0747   21.8477 C.3     1  UNL1        0.1582
      5 O          -5.9080  -17.8483   22.7602 O.3     1  UNL1       -0.4375
      6 C          -7.2894  -18.2311   22.3185 C.2     1  UNL1        0.4051
      7 O          -8.4582  -18.0047   23.2309 O.2     1  UNL1       -0.2262
      8 C          -3.3259  -18.0916   21.3450 C.ar    1  UNL1        0.0139
      9 C          -2.7134  -19.3766   20.8722 C.ar    1  UNL1        0.0014
     10 C          -1.3002  -19.3935   20.3694 C.ar    1  UNL1        0.0294
     11 C          -0.4997  -18.1253   20.3394 C.ar    1  UNL1        0.1401
     12 F           0.9134  -18.1422   19.8367 F       1  UNL1       -0.2042
     13 C          -1.1122  -16.8403   20.8122 C.ar    1  UNL1        0.0294
     14 C          -2.5254  -16.8234   21.3150 C.ar    1  UNL1        0.0014
     15 C          -9.0836  -19.9311   19.2155 C.3     1  UNL1        0.0265
     16 C          -8.8833  -19.2234   20.5227 C.3     1  UNL1        0.1011
     17 C         -10.0646  -18.8984   21.3883 C.ar    1  UNL1       -0.0041
     18 C         -10.4630  -19.8303   22.4941 C.ar    1  UNL1       -0.0022
     19 C         -11.6441  -19.5054   23.3597 C.ar    1  UNL1        0.0064
     20 C         -12.4268  -18.2485   23.1195 C.ar    1  UNL1        0.0345
     21 BR        -13.6081  -17.9236   23.9851 Br      1  UNL1       -0.0490
     22 C         -12.0284  -17.3166   22.0137 C.ar    1  UNL1        0.0064
     23 C         -10.8472  -17.6416   21.1481 C.ar    1  UNL1       -0.0022
     24 C          -4.0357  -17.4712   23.0272 C.3     1  UNL1        0.0541
     25 C          -4.8297  -16.9562   24.1910 C.3     1  UNL1        0.0887
     26 C          -5.2078  -15.5061   24.2579 C.2     1  UNL1        0.2195
     27 N          -5.7163  -14.8064   23.0325 N.am    1  UNL1       -0.3288
     28 O          -5.0775  -14.7560   25.5503 O.2     1  UNL1       -0.2753
     29 H          -5.8018  -15.2988   22.1843 H       1  UNL1        0.1449
     30 H          -5.9645  -13.8547   23.0764 H       1  UNL1        0.1449
@<TRIPOS>BOND
     1    16    15    1
     2    16    17    1
     3    17    18   ar
     4    18    19   ar
     5    19    20   ar
     6    20    21    1
     7    20    22   ar
     8    22    23   ar
     9    16     1    1
    10     1     2    1
    11     2     3    1
    12     3     4    1
    13     4    24    1
    14    24    25    1
    15    25    26    1
    16    26    27   am
    17    26    28    2
    18     4     8    1
    19     8     9   ar
    20     9    10   ar
    21    10    11   ar
    22    11    12    1
    23    11    13   ar
    24    13    14   ar
    25     4     5    1
    26     5     6    1
    27     6     7    2
    28    23    17   ar
    29     6     1   am
    30    14     8   ar
    31    27    29    1
    32    27    30    1
@<TRIPOS>MOLECULE
*****
 30 32 0 0 0
SMALL
GASTEIGER

@<TRIPOS>ATOM
      1 N          -5.3431  -17.5688   23.0561 N.am    1  UNL1       -0.2438
      2 C          -6.4282  -18.3133   22.3364 C.3     1  UNL1        0.1009
      3 C          -7.8603  -17.9000   22.5049 C.3     1  UNL1        0.0661
      4 C          -8.2072  -16.7422   23.3932 C.3     1  UNL1        0.1582
      5 O          -7.1220  -15.9977   24.1131 O.3     1  UNL1       -0.4375
      6 C          -5.6899  -16.4110   23.9445 C.2     1  UNL1        0.4051
      7 O          -4.6048  -15.6665   24.6643 O.2     1  UNL1       -0.2262
      8 C          -9.5782  -17.1316   22.9255 C.ar    1  UNL1        0.0139
      9 C         -10.3983  -18.0976   23.7282 C.ar    1  UNL1        0.0014
     10 C         -11.7693  -18.4869   23.2605 C.ar    1  UNL1        0.0294
     11 C         -12.3202  -17.9103   21.9901 C.ar    1  UNL1        0.1401
     12 F         -13.6912  -18.2996   21.5224 F       1  UNL1       -0.2042
     13 C         -11.5001  -16.9443   21.1874 C.ar    1  UNL1        0.0294
     14 C         -10.1291  -16.5549   21.6551 C.ar    1  UNL1        0.0014
     15 C          -3.1162  -18.4350   24.0764 C.3     1  UNL1        0.0265
     16 C          -3.9110  -17.9821   22.8876 C.3     1  UNL1        0.1011
     17 C          -3.2738  -17.9426   21.5302 C.ar    1  UNL1       -0.0041
     18 C          -2.1814  -16.9556   21.2430 C.ar    1  UNL1       -0.0022
     19 C          -1.5442  -16.9161   19.8857 C.ar    1  UNL1        0.0064
     20 C          -1.9994  -17.8635   18.8156 C.ar    1  UNL1        0.0345
     21 BR         -1.3621  -17.8240   17.4582 Br      1  UNL1       -0.0490
     22 C          -3.0918  -18.8505   19.1028 C.ar    1  UNL1        0.0064
     23 C          -3.7290  -18.8900   20.4601 C.ar    1  UNL1       -0.0022
     24 C          -9.0302  -15.7196   24.1191 C.3     1  UNL1        0.0541
     25 C          -8.4472  -14.9781   25.2854 C.3     1  UNL1        0.0887
     26 C          -8.5379  -15.5597   26.6651 C.2     1  UNL1        0.2195
     27 N          -8.4258  -14.6660   27.8645 N.am    1  UNL1       -0.3288
     28 O          -8.7405  -17.0350   26.8453 O.2     1  UNL1       -0.2753
     29 H          -8.2928  -13.6977   27.7462 H       1  UNL1        0.1449
     30 H          -8.4853  -15.0476   28.7701 H       1  UNL1        0.1449
@<TRIPOS>BOND
     1    16    15    1
     2    16    17    1
     3    17    18   ar
     4    18    19   ar
     5    19    20   ar
     6    20    21    1
     7    20    22   ar
     8    22    23   ar
     9    16     1    1
    10     1     2    1
    11     2     3    1
    12     3     4    1
    13     4    24    1
    14    24    25    1
    15    25    26    1
    16    26    27   am
    17    26    28    2
    18     4     8    1
    19     8     9   ar
    20     9    10   ar
    21    10    11   ar
    22    11    12    1
    23    11    13   ar
    24    13    14   ar
    25     4     5    1
    26     5     6    1
    27     6     7    2
    28    23    17   ar
    29     6     1   am
    30    14     8   ar
    31    27    29    1
    32    27    30    1
@<TRIPOS>MOLECULE
*****
 30 32 0 0 0
SMALL
GASTEIGER

@<TRIPOS>ATOM
      1 N          -6.4018  -17.1687   23.3766 N.am    1  UNL1       -0.2438
      2 C          -7.6101  -16.7787   24.1751 C.3     1  UNL1        0.1009
      3 C          -8.9598  -17.3190   23.8056 C.3     1  UNL1        0.0661
      4 C          -9.1010  -18.2493   22.6375 C.3     1  UNL1        0.1582
      5 O          -7.8927  -18.6394   21.8389 O.3     1  UNL1       -0.4375
      6 C          -6.5430  -18.0991   22.2085 C.2     1  UNL1        0.4051
      7 O          -5.3347  -18.4892   21.4099 O.2     1  UNL1       -0.2262
      8 C         -10.5310  -18.1732   23.0843 C.ar    1  UNL1        0.0139
      9 C         -10.9988  -18.9990   24.2458 C.ar    1  UNL1        0.0014
     10 C         -12.4287  -18.9229   24.6926 C.ar    1  UNL1        0.0294
     11 C         -13.3907  -18.0209   23.9778 C.ar    1  UNL1        0.1401
     12 F         -14.8206  -17.9448   24.4246 F       1  UNL1       -0.2042
     13 C         -12.9229  -17.1951   22.8163 C.ar    1  UNL1        0.0294
     14 C         -11.4930  -17.2712   22.3696 C.ar    1  UNL1        0.0014
     15 C          -4.9026  -15.7401   24.9455 C.3     1  UNL1        0.0265
     16 C          -5.0521  -16.6284   23.7461 C.3     1  UNL1        0.1011
     17 C          -3.8520  -16.9765   22.9162 C.ar    1  UNL1       -0.0041
     18 C          -3.3007  -18.3712   22.9428 C.ar    1  UNL1       -0.0022
     19 C          -2.1007  -18.7192   22.1129 C.ar    1  UNL1        0.0064
     20 C          -1.4519  -17.6725   21.2565 C.ar    1  UNL1        0.0345
     21 BR         -0.2518  -18.0206   20.4267 Br      1  UNL1       -0.0490
     22 C          -2.0032  -16.2778   21.2300 C.ar    1  UNL1        0.0064
     23 C          -3.2032  -15.9298   22.0598 C.ar    1  UNL1       -0.0022
     24 C          -9.7389  -19.1533   21.6246 C.3     1  UNL1        0.0541
     25 C          -9.6966  -18.7960   20.1684 C.3     1  UNL1        0.0887
     26 C          -8.8019  -19.5567   19.2352 C.2     1  UNL1        0.2195
     27 N          -7.3498  -19.1962   19.1281 N.am    1  UNL1       -0.3288
     28 O          -9.3593  -20.6777   18.4091 O.2     1  UNL1       -0.2753
     29 H          -6.9840  -18.4603   19.6703 H       1  UNL1        0.1449
     30 H          -6.7625  -19.6954   18.5156 H       1  UNL1        0.1449
@<TRIPOS>BOND
     1    16    15    1
     2    16    17    1
     3    17    18   ar
     4    18    19   ar
     5    19    20   ar
     6    20    21    1
     7    20    22   ar
     8    22    23   ar
     9    16     1    1
    10     1     2    1
    11     2     3    1
    12     3     4    1
    13     4    24    1
    14    24    25    1
    15    25    26    1
    16    26    27   am
    17    26    28    2
    18     4     8    1
    19     8     9   ar
    20     9    10   ar
    21    10    11   ar
    22    11    12    1
    23    11    13   ar
    24    13    14   ar
    25     4     5    1
    26     5     6    1
    27     6     7    2
    28    23    17   ar
    29     6     1   am
    30    14     8   ar
    31    27    29    1
    32    27    30    1
@<TRIPOS>MOLECULE
*****
 30 32 0 0 0
SMALL
GASTEIGER

@<TRIPOS>ATOM
      1 N           6.4477   -2.9223   22.4662 N.am    1  UNL1       -0.2438
      2 C           5.5827   -1.8538   23.0663 C.3     1  UNL1        0.1009
      3 C           4.3505   -1.3935   22.3453 C.3     1  UNL1        0.0661
      4 C           3.9834   -2.0015   21.0241 C.3     1  UNL1        0.1582
      5 O           4.8485   -3.0700   20.4240 O.3     1  UNL1       -0.4375
      6 C           6.0806   -3.5304   21.1450 C.2     1  UNL1        0.4051
      7 O           6.9456   -4.5988   20.5449 O.2     1  UNL1       -0.2262
      8 C           2.8547   -1.0266   21.1848 C.ar    1  UNL1        0.0139
      9 C           1.7413   -0.9962   20.1801 C.ar    1  UNL1        0.0014
     10 C           0.6126   -0.0213   20.3408 C.ar    1  UNL1        0.0294
     11 C           0.5975    0.9230   21.5061 C.ar    1  UNL1        0.1401
     12 F          -0.5312    1.8979   21.6668 F       1  UNL1       -0.2042
     13 C           1.7109    0.8926   22.5108 C.ar    1  UNL1        0.0294
     14 C           2.8396   -0.0823   22.3501 C.ar    1  UNL1        0.0014
     15 C           8.9642   -2.6224   23.0381 C.3     1  UNL1        0.0265
     16 C           7.6798   -3.3826   23.1873 C.3     1  UNL1        0.1011
     17 C           7.6275   -4.6033   24.0575 C.ar    1  UNL1       -0.0041
     18 C           6.9737   -4.5357   25.4058 C.ar    1  UNL1       -0.0022
     19 C           6.9214   -5.7564   26.2760 C.ar    1  UNL1        0.0064
     20 C           7.5229   -7.0446   25.7978 C.ar    1  UNL1        0.0345
     21 BR          7.4706   -8.2653   26.6681 Br      1  UNL1       -0.0490
     22 C           8.1767   -7.1122   24.4495 C.ar    1  UNL1        0.0064
     23 C           8.2290   -5.8916   23.5794 C.ar    1  UNL1       -0.0022
     24 C           3.2243   -2.2710   19.7587 C.3     1  UNL1        0.0541
     25 C           3.9641   -2.5983   18.4956 C.3     1  UNL1        0.0887
     26 C           4.5394   -1.4962   17.6563 C.2     1  UNL1        0.2195
     27 N           5.7890   -0.7927   18.0964 N.am    1  UNL1       -0.3288
     28 O           3.8652   -1.0977   16.3770 O.2     1  UNL1       -0.2753
     29 H           6.2315   -1.0544   18.9360 H       1  UNL1        0.1449
     30 H           6.1666   -0.0694   17.5456 H       1  UNL1        0.1449
@<TRIPOS>BOND
     1    16    15    1
     2    16    17    1
     3    17    18   ar
     4    18    19   ar
     5    19    20   ar
     6    20    21    1
     7    20    22   ar
     8    22    23   ar
     9    16     1    1
    10     1     2    1
    11     2     3    1
    12     3     4    1
    13     4    24    1
    14    24    25    1
    15    25    26    1
    16    26    27   am
    17    26    28    2
    18     4     8    1
    19     8     9   ar
    20     9    10   ar
    21    10    11   ar
    22    11    12    1
    23    11    13   ar
    24    13    14   ar
    25     4     5    1
    26     5     6    1
    27     6     7    2
    28    23    17   ar
    29     6     1   am
    30    14     8   ar
    31    27    29    1
    32    27    30    1
@<TRIPOS>MOLECULE
*****
 30 32 0 0 0
SMALL
GASTEIGER

@<TRIPOS>ATOM
      1 N           5.0313   -3.2342   20.9284 N.am    1  UNL1       -0.2438
      2 C           4.6371   -3.5229   22.3465 C.3     1  UNL1        0.1009
      3 C           5.6831   -3.5723   23.4205 C.3     1  UNL1        0.0661
      4 C           7.1233   -3.3330   23.0763 C.3     1  UNL1        0.1582
      5 O           7.5176   -3.0443   21.6581 O.3     1  UNL1       -0.4375
      6 C           6.4715   -2.9949   20.5841 C.2     1  UNL1        0.4051
      7 O           6.8657   -2.7062   19.1659 O.2     1  UNL1       -0.2262
      8 C           7.2438   -3.5668   24.5531 C.ar    1  UNL1        0.0139
      9 C           7.7535   -2.4748   25.4462 C.ar    1  UNL1        0.0014
     10 C           7.8740   -2.7086   26.9230 C.ar    1  UNL1        0.0294
     11 C           7.4849   -4.0345   27.5065 C.ar    1  UNL1        0.1401
     12 F           7.6054   -4.2683   28.9833 F       1  UNL1       -0.2042
     13 C           6.9752   -5.1265   26.6134 C.ar    1  UNL1        0.0294
     14 C           6.8547   -4.8927   25.1367 C.ar    1  UNL1        0.0014
     15 C           3.5983   -4.4377   19.1261 C.3     1  UNL1        0.0265
     16 C           3.9853   -3.1848   19.8544 C.3     1  UNL1        0.1011
     17 C           3.3262   -1.8824   19.5088 C.ar    1  UNL1       -0.0041
     18 C           3.7409   -1.1359   18.2756 C.ar    1  UNL1       -0.0022
     19 C           3.0818    0.1664   17.9300 C.ar    1  UNL1        0.0064
     20 C           2.0080    0.7223   18.8176 C.ar    1  UNL1        0.0345
     21 BR          1.3489    2.0247   18.4720 Br      1  UNL1       -0.0490
     22 C           1.5932   -0.0241   20.0508 C.ar    1  UNL1        0.0064
     23 C           2.2523   -1.3265   20.3963 C.ar    1  UNL1       -0.0022
     24 C           8.6054   -3.1749   23.2450 C.3     1  UNL1        0.0541
     25 C           9.5128   -4.3526   23.0459 C.3     1  UNL1        0.0887
     26 C           9.1552   -5.4149   22.0489 C.2     1  UNL1        0.2195
     27 N           9.5351   -5.2487   20.6073 N.am    1  UNL1       -0.3288
     28 O           8.4179   -6.6431   22.4935 O.2     1  UNL1       -0.2753
     29 H          10.0190   -4.4426   20.3156 H       1  UNL1        0.1449
     30 H           9.3004   -5.9459   19.9530 H       1  UNL1        0.1449
@<TRIPOS>BOND
     1    16    15    1
     2    16    17    1
     3    17    18   ar
     4    18    19   ar
     5    19    20   ar
     6    20    21    1
     7    20    22   ar
     8    22    23   ar
     9    16     1    1
    10     1     2    1
    11     2     3    1
    12     3     4    1
    13     4    24    1
    14    24    25    1
    15    25    26    1
    16    26    27   am
    17    26    28    2
    18     4     8    1
    19     8     9   ar
    20     9    10   ar
    21    10    11   ar
    22    11    12    1
    23    11    13   ar
    24    13    14   ar
    25     4     5    1
    26     5     6    1
    27     6     7    2
    28    23    17   ar
    29     6     1   am
    30    14     8   ar
    31    27    29    1
    32    27    30    1
@<TRIPOS>MOLECULE
*****
 30 32 0 0 0
SMALL
GASTEIGER

@<TRIPOS>ATOM
      1 N           6.7207   -2.3732   22.2899 N.am    1  UNL1       -0.2438
      2 C           5.8119   -1.1800   22.3009 C.3     1  UNL1        0.1009
      3 C           4.7543   -1.0330   21.2474 C.3     1  UNL1        0.0661
      4 C           4.6055   -2.0792   20.1829 C.3     1  UNL1        0.1582
      5 O           5.5144   -3.2725   20.1719 O.3     1  UNL1       -0.4375
      6 C           6.5720   -3.4195   21.2254 C.2     1  UNL1        0.4051
      7 O           7.4808   -4.6128   21.2144 O.2     1  UNL1       -0.2262
      8 C           3.5133   -1.1355   19.7749 C.ar    1  UNL1        0.0139
      9 C           3.6451   -0.3366   18.5122 C.ar    1  UNL1        0.0014
     10 C           2.5528    0.6071   18.1043 C.ar    1  UNL1        0.0294
     11 C           1.3288    0.7519   18.9591 C.ar    1  UNL1        0.1401
     12 F           0.2365    1.6957   18.5512 F       1  UNL1       -0.2042
     13 C           1.1970   -0.0469   20.2219 C.ar    1  UNL1        0.0294
     14 C           2.2892   -0.9907   20.6298 C.ar    1  UNL1        0.0014
     15 C           9.1648   -2.0066   23.0910 C.3     1  UNL1        0.0265
     16 C           7.7783   -2.5202   23.3434 C.3     1  UNL1        0.1011
     17 C           7.4493   -3.1808   24.6494 C.ar    1  UNL1       -0.0041
     18 C           7.2252   -4.6629   24.7047 C.ar    1  UNL1       -0.0022
     19 C           6.8962   -5.3234   26.0106 C.ar    1  UNL1        0.0064
     20 C           6.7914   -4.5018   27.2612 C.ar    1  UNL1        0.0345
     21 BR          6.4624   -5.1624   28.5672 Br      1  UNL1       -0.0490
     22 C           7.0155   -3.0197   27.2059 C.ar    1  UNL1        0.0064
     23 C           7.3445   -2.3592   25.9000 C.ar    1  UNL1       -0.0022
     24 C           4.0774   -2.7978   18.9767 C.3     1  UNL1        0.0541
     25 C           3.1700   -3.9801   19.1456 C.3     1  UNL1        0.0887
     26 C           3.7488   -5.3371   19.4170 C.2     1  UNL1        0.2195
     27 N           4.9364   -5.8158   18.6357 N.am    1  UNL1       -0.3288
     28 O           3.1400   -6.2153   20.4697 O.2     1  UNL1       -0.2753
     29 H           5.3359   -5.2394   17.9448 H       1  UNL1        0.1449
     30 H           5.3163   -6.7064   18.8138 H       1  UNL1        0.1449
@<TRIPOS>BOND
     1    16    15    1
     2    16    17    1
     3    17    18   ar
     4    18    19   ar
     5    19    20   ar
     6    20    21    1
     7    20    22   ar
     8    22    23   ar
     9    16     1    1
    10     1     2    1
    11     2     3    1
    12     3     4    1
    13     4    24    1
    14    24    25    1
    15    25    26    1
    16    26    27   am
    17    26    28    2
    18     4     8    1
    19     8     9   ar
    20     9    10   ar
    21    10    11   ar
    22    11    12    1
    23    11    13   ar
    24    13    14   ar
    25     4     5    1
    26     5     6    1
    27     6     7    2
    28    23    17   ar
    29     6     1   am
    30    14     8   ar
    31    27    29    1
    32    27    30    1
