@<TRIPOS>MOLECULE
*****
 35 38 0 0 0
SMALL
GASTEIGER

@<TRIPOS>ATOM
      1 N           0.6594    2.0397   20.1217 N.3     1  UNL1       -0.2679
      2 C           2.0063    2.6204   20.4360 C.3     1  UNL1        0.0897
      3 C           3.2118    2.1829   19.6580 C.3     1  UNL1        0.0897
      4 N           3.0703    1.1646   18.5656 N.3     1  UNL1       -0.2680
      5 C           1.7235    0.5839   18.2513 C.3     1  UNL1        0.0897
      6 C           0.5181    1.0215   19.0294 C.3     1  UNL1        0.0897
      7 C          -0.5461    2.4772   20.8997 C.3     1  UNL1        0.1080
      8 C          -1.5716    3.3642   20.2581 C.3     1  UNL1        0.1661
      9 O          -1.2611    4.0547   18.9632 O.3     1  UNL1       -0.3771
     10 H          -0.3630    3.8221   18.6800 H       1  UNL1        0.2109
     11 C          -5.4809    3.8639   20.7240 C.ar    1  UNL1        0.1510
     12 C          -4.1450    3.6674   20.0707 C.ar    1  UNL1        0.0548
     13 C          -2.9074    3.5607   20.9115 C.ar    1  UNL1        0.0901
     14 N          -3.0057    3.6505   22.4056 N.ar    1  UNL1       -0.2448
     15 C          -4.3416    3.8470   23.0588 C.ar    1  UNL1        0.1118
     16 C          -5.5792    3.9537   22.2180 C.ar    1  UNL1        0.1213
     17 C          -6.6055    4.2562   18.4150 C.3     1  UNL1        0.2525
     18 O          -6.7186    3.9706   19.8832 O.3     1  UNL1       -0.4707
     19 C          -6.9151    4.1502   22.8715 C.1     1  UNL1        0.1051
     20 N          -8.2509    4.3465   23.5248 N.1     1  UNL1       -0.1907
     21 C           4.2758    0.7271   17.7876 C.3     1  UNL1        0.1064
     22 C           4.4889   -0.7275   17.4897 C.3     1  UNL1        0.1483
     23 O           3.8288   -1.3533   16.2969 O.3     1  UNL1       -0.3786
     24 H           4.0688   -2.2920   16.2500 H       1  UNL1        0.2108
     25 C           5.3620   -1.5563   18.3846 C.ar    1  UNL1        0.0015
     26 C           6.8319   -1.6652   18.1067 C.ar    1  UNL1       -0.0020
     27 C           7.7050   -2.4940   19.0016 C.ar    1  UNL1        0.0060
     28 C           7.1081   -3.2139   20.1744 C.ar    1  UNL1        0.0748
     29 C           5.6381   -3.1051   20.4523 C.ar    1  UNL1        0.0233
     30 C           4.7650   -2.2763   19.5574 C.ar    1  UNL1       -0.0238
     31 C           3.2950   -2.1674   19.8352 C.3     1  UNL1        0.0306
     32 C           5.3355   -3.9218   21.6734 C.3     1  UNL1        0.2352
     33 O           6.6185   -4.5354   22.1503 O.3     1  UNL1       -0.4404
     34 C           7.7140   -4.0979   21.2238 C.2     1  UNL1        0.3413
     35 O           9.1614   -4.4778   21.3285 O.2     1  UNL1       -0.2449
@<TRIPOS>BOND
     1    17    18    1
     2    18    11    1
     3    11    12   ar
     4    12    13   ar
     5    13     8    1
     6     8     9    1
     7     8     7    1
     8     7     1    1
     9     1     2    1
    10     2     3    1
    11     3     4    1
    12     4    21    1
    13    21    22    1
    14    22    23    1
    15    22    25    1
    16    25    26   ar
    17    26    27   ar
    18    27    28   ar
    19    28    29   ar
    20    29    30   ar
    21    30    31    1
    22    29    32    1
    23    32    33    1
    24    33    34    1
    25    34    35    2
    26     4     5    1
    27     5     6    1
    28    13    14   ar
    29    14    15   ar
    30    15    16   ar
    31    16    19    1
    32    19    20    3
    33    16    11   ar
    34     6     1    1
    35    30    25   ar
    36    34    28    1
    37     9    10    1
    38    23    24    1
@<TRIPOS>MOLECULE
*****
 35 38 0 0 0
SMALL
GASTEIGER

@<TRIPOS>ATOM
      1 N           0.9711    2.8322   19.4811 N.3     1  UNL1       -0.2679
      2 C           2.3178    3.4927   19.4848 C.3     1  UNL1        0.0897
      3 C           3.4906    2.8084   18.8475 C.3     1  UNL1        0.0897
      4 N           3.3166    1.4634   18.2065 N.3     1  UNL1       -0.2680
      5 C           1.9699    0.8028   18.2028 C.3     1  UNL1        0.0897
      6 C           0.7971    1.4873   18.8401 C.3     1  UNL1        0.0897
      7 C          -0.2017    3.5165   20.1184 C.3     1  UNL1        0.1080
      8 C          -0.7707    2.9897   21.4025 C.3     1  UNL1        0.1661
      9 O           0.0913    2.1870   22.3311 O.3     1  UNL1       -0.3771
     10 H           0.9810    2.1022   21.9543 H       1  UNL1        0.2109
     11 C          -3.9697    4.1720   23.4319 C.ar    1  UNL1        0.1510
     12 C          -2.5387    3.8960   23.0765 C.ar    1  UNL1        0.0548
     13 C          -2.2016    3.2657   21.7577 C.ar    1  UNL1        0.0901
     14 N          -3.2954    2.9115   20.7943 N.ar    1  UNL1       -0.2448
     15 C          -4.7263    3.1875   21.1497 C.ar    1  UNL1        0.1118
     16 C          -5.0634    3.8178   22.4685 C.ar    1  UNL1        0.1213
     17 C          -4.4316    3.9504   25.9789 C.3     1  UNL1        0.2525
     18 O          -4.3069    4.8023   24.7506 O.3     1  UNL1       -0.4707
     19 C          -6.4944    4.0938   22.8237 C.1     1  UNL1        0.1051
     20 N          -7.9254    4.3699   23.1789 N.1     1  UNL1       -0.1907
     21 C           4.4894    0.7790   17.5691 C.3     1  UNL1        0.1064
     22 C           4.5005   -0.7143   17.4280 C.3     1  UNL1        0.1483
     23 O           3.7285   -1.3688   16.3209 O.3     1  UNL1       -0.3786
     24 H           3.8417   -2.3307   16.3726 H       1  UNL1        0.2108
     25 C           5.2837   -1.5532   18.3940 C.ar    1  UNL1        0.0015
     26 C           6.7594   -1.7392   18.2006 C.ar    1  UNL1       -0.0020
     27 C           7.5425   -2.5781   19.1666 C.ar    1  UNL1        0.0060
     28 C           6.8498   -3.2308   20.3259 C.ar    1  UNL1        0.0748
     29 C           5.3740   -3.0447   20.5193 C.ar    1  UNL1        0.0233
     30 C           4.5909   -2.2059   19.5534 C.ar    1  UNL1       -0.0238
     31 C           3.1151   -2.0198   19.7467 C.3     1  UNL1        0.0306
     32 C           4.9676   -3.8062   21.7461 C.3     1  UNL1        0.2352
     33 O           6.1923   -4.4629   22.3109 O.3     1  UNL1       -0.4404
     34 C           7.3555   -4.1073   21.4332 C.2     1  UNL1        0.3413
     35 O           8.7752   -4.5504   21.6285 O.2     1  UNL1       -0.2449
@<TRIPOS>BOND
     1    17    18    1
     2    18    11    1
     3    11    12   ar
     4    12    13   ar
     5    13     8    1
     6     8     9    1
     7     8     7    1
     8     7     1    1
     9     1     2    1
    10     2     3    1
    11     3     4    1
    12     4    21    1
    13    21    22    1
    14    22    23    1
    15    22    25    1
    16    25    26   ar
    17    26    27   ar
    18    27    28   ar
    19    28    29   ar
    20    29    30   ar
    21    30    31    1
    22    29    32    1
    23    32    33    1
    24    33    34    1
    25    34    35    2
    26     4     5    1
    27     5     6    1
    28    13    14   ar
    29    14    15   ar
    30    15    16   ar
    31    16    19    1
    32    19    20    3
    33    16    11   ar
    34     6     1    1
    35    30    25   ar
    36    34    28    1
    37     9    10    1
    38    23    24    1
@<TRIPOS>MOLECULE
*****
 35 38 0 0 0
SMALL
GASTEIGER

@<TRIPOS>ATOM
      1 N           2.9692    0.6994   18.9440 N.3     1  UNL1       -0.2679
      2 C           3.6311    1.0714   20.2377 C.3     1  UNL1        0.0897
      3 C           2.8041    1.2698   21.4733 C.3     1  UNL1        0.0897
      4 N           1.3153    1.0963   21.4151 N.3     1  UNL1       -0.2680
      5 C           0.6534    0.7243   20.1214 C.3     1  UNL1        0.0897
      6 C           1.4805    0.5259   18.8859 C.3     1  UNL1        0.0897
      7 C           3.7962    0.5010   17.7084 C.3     1  UNL1        0.1080
      8 C           4.2072   -0.8811   17.2948 C.3     1  UNL1        0.1661
      9 O           3.6425   -1.4890   16.0452 O.3     1  UNL1       -0.3771
     10 H           3.0327   -0.8611   15.6272 H       1  UNL1        0.2109
     11 C           5.6624   -3.3145   20.0717 C.ar    1  UNL1        0.1510
     12 C           4.6868   -2.5404   19.2356 C.ar    1  UNL1        0.0548
     13 C           5.1828   -1.6551   18.1309 C.ar    1  UNL1        0.0901
     14 N           6.6544   -1.5440   17.8623 N.ar    1  UNL1       -0.2448
     15 C           7.6299   -2.3181   18.6984 C.ar    1  UNL1        0.1118
     16 C           7.1339   -3.2033   19.8031 C.ar    1  UNL1        0.1213
     17 C           4.6780   -3.5956   22.4595 C.3     1  UNL1        0.2525
     18 O           5.1664   -4.1997   21.1764 O.3     1  UNL1       -0.4707
     19 C           8.1096   -3.9774   20.6392 C.1     1  UNL1        0.1051
     20 N           9.0853   -4.7513   21.4752 N.1     1  UNL1       -0.1907
     21 C           0.4883    1.2947   22.6507 C.3     1  UNL1        0.1064
     22 C           1.0010    2.1571   23.7658 C.3     1  UNL1        0.1483
     23 O           1.2957    3.6069   23.5181 O.3     1  UNL1       -0.3786
     24 H           1.6164    4.0161   24.3369 H       1  UNL1        0.2108
     25 C           1.2191    1.5696   25.1288 C.ar    1  UNL1        0.0015
     26 C           2.5138    0.8846   25.4518 C.ar    1  UNL1       -0.0020
     27 C           2.7319    0.2972   26.8146 C.ar    1  UNL1        0.0060
     28 C           1.6552    0.3949   27.8545 C.ar    1  UNL1        0.0748
     29 C           0.3604    1.0799   27.5314 C.ar    1  UNL1        0.0233
     30 C           0.1424    1.6673   26.1686 C.ar    1  UNL1       -0.0238
     31 C          -1.1524    2.3524   25.8455 C.3     1  UNL1        0.0306
     32 C          -0.5111    1.0227   28.7509 C.3     1  UNL1        0.2352
     33 O           0.2450    0.3022   29.8276 O.3     1  UNL1       -0.4404
     34 C           1.5838   -0.0858   29.2736 C.2     1  UNL1        0.3413
     35 O           2.6620   -0.8247   30.0095 O.2     1  UNL1       -0.2449
@<TRIPOS>BOND
     1    17    18    1
     2    18    11    1
     3    11    12   ar
     4    12    13   ar
     5    13     8    1
     6     8     9    1
     7     8     7    1
     8     7     1    1
     9     1     2    1
    10     2     3    1
    11     3     4    1
    12     4    21    1
    13    21    22    1
    14    22    23    1
    15    22    25    1
    16    25    26   ar
    17    26    27   ar
    18    27    28   ar
    19    28    29   ar
    20    29    30   ar
    21    30    31    1
    22    29    32    1
    23    32    33    1
    24    33    34    1
    25    34    35    2
    26     4     5    1
    27     5     6    1
    28    13    14   ar
    29    14    15   ar
    30    15    16   ar
    31    16    19    1
    32    19    20    3
    33    16    11   ar
    34     6     1    1
    35    30    25   ar
    36    34    28    1
    37     9    10    1
    38    23    24    1
@<TRIPOS>MOLECULE
*****
 35 38 0 0 0
SMALL
GASTEIGER

@<TRIPOS>ATOM
      1 N           0.5050    1.8926   26.2471 N.3     1  UNL1       -0.2679
      2 C           1.8154    1.3137   25.8023 C.3     1  UNL1        0.0897
      3 C           2.1459    1.2412   24.3410 C.3     1  UNL1        0.0897
      4 N           1.1659    1.7475   23.3245 N.3     1  UNL1       -0.2680
      5 C          -0.1445    2.3264   23.7692 C.3     1  UNL1        0.0897
      6 C          -0.4749    2.3989   25.2305 C.3     1  UNL1        0.0897
      7 C           0.1745    1.9651   27.7084 C.3     1  UNL1        0.1080
      8 C           0.2496    0.7303   28.5567 C.3     1  UNL1        0.1661
      9 O          -0.5204   -0.4962   28.1656 O.3     1  UNL1       -0.3771
     10 H          -1.0103   -0.3229   27.3465 H       1  UNL1        0.2109
     11 C           3.0300   -0.3047   31.1924 C.ar    1  UNL1        0.1510
     12 C           2.1849   -0.2963   29.9532 C.ar    1  UNL1        0.0548
     13 C           1.0946    0.7219   29.7959 C.ar    1  UNL1        0.0901
     14 N           0.8495    1.7315   30.8778 N.ar    1  UNL1       -0.2448
     15 C           1.6946    1.7230   32.1170 C.ar    1  UNL1        0.1118
     16 C           2.7849    0.7049   32.2743 C.ar    1  UNL1        0.1213
     17 C           5.4173   -1.1524   30.6158 C.3     1  UNL1        0.2525
     18 O           4.1204   -1.3229   31.3499 O.3     1  UNL1       -0.4707
     19 C           3.6300    0.6965   33.5136 C.1     1  UNL1        0.1051
     20 N           4.4752    0.6881   34.7528 N.1     1  UNL1       -0.1907
     21 C           1.4963    1.6750   21.8631 C.3     1  UNL1        0.1064
     22 C           1.2025    0.4243   21.0890 C.3     1  UNL1        0.1483
     23 O          -0.1990    0.1305   20.6423 O.3     1  UNL1       -0.3786
     24 H          -0.2146   -0.7099   20.1582 H       1  UNL1        0.2108
     25 C           2.3102   -0.5328   20.7614 C.ar    1  UNL1        0.0015
     26 C           2.8981   -1.3963   21.8378 C.ar    1  UNL1       -0.0020
     27 C           4.0057   -2.3533   21.5103 C.ar    1  UNL1        0.0060
     28 C           4.5255   -2.4467   20.1064 C.ar    1  UNL1        0.0748
     29 C           3.9377   -1.5832   19.0299 C.ar    1  UNL1        0.0233
     30 C           2.8300   -0.6262   19.3574 C.ar    1  UNL1       -0.0238
     31 C           2.2421    0.2374   18.2810 C.3     1  UNL1        0.0306
     32 C           4.6496   -1.8931   17.7466 C.3     1  UNL1        0.2352
     33 O           5.6775   -2.9482   18.0299 O.3     1  UNL1       -0.4404
     34 C           5.6008   -3.2903   19.4883 C.2     1  UNL1        0.3413
     35 O           6.4503   -4.2990   20.2031 O.2     1  UNL1       -0.2449
@<TRIPOS>BOND
     1    17    18    1
     2    18    11    1
     3    11    12   ar
     4    12    13   ar
     5    13     8    1
     6     8     9    1
     7     8     7    1
     8     7     1    1
     9     1     2    1
    10     2     3    1
    11     3     4    1
    12     4    21    1
    13    21    22    1
    14    22    23    1
    15    22    25    1
    16    25    26   ar
    17    26    27   ar
    18    27    28   ar
    19    28    29   ar
    20    29    30   ar
    21    30    31    1
    22    29    32    1
    23    32    33    1
    24    33    34    1
    25    34    35    2
    26     4     5    1
    27     5     6    1
    28    13    14   ar
    29    14    15   ar
    30    15    16   ar
    31    16    19    1
    32    19    20    3
    33    16    11   ar
    34     6     1    1
    35    30    25   ar
    36    34    28    1
    37     9    10    1
    38    23    24    1
@<TRIPOS>MOLECULE
*****
 35 38 0 0 0
SMALL
GASTEIGER

@<TRIPOS>ATOM
      1 N           5.5512   -2.0420   24.0882 N.3     1  UNL1       -0.2679
      2 C           6.0429   -0.8197   23.3710 C.3     1  UNL1        0.0897
      3 C           6.2239   -0.8458   21.8822 C.3     1  UNL1        0.0897
      4 N           5.9133   -2.0941   21.1106 N.3     1  UNL1       -0.2680
      5 C           5.4216   -3.3164   21.8279 C.3     1  UNL1        0.0897
      6 C           5.2406   -3.2902   23.3166 C.3     1  UNL1        0.0897
      7 C           5.3701   -2.0159   25.5770 C.3     1  UNL1        0.1080
      8 C           4.1708   -1.3422   26.1751 C.3     1  UNL1        0.1661
      9 O           3.0559   -0.8708   25.2892 O.3     1  UNL1       -0.3771
     10 H           3.2674   -1.0776   24.3654 H       1  UNL1        0.2109
     11 C           2.7171   -0.4768   29.7650 C.ar    1  UNL1        0.1510
     12 C           2.8016   -0.6791   28.2811 C.ar    1  UNL1        0.0548
     13 C           4.0864   -1.1399   27.6590 C.ar    1  UNL1        0.0901
     14 N           5.2866   -1.3984   28.5207 N.ar    1  UNL1       -0.2448
     15 C           5.2021   -1.1961   30.0045 C.ar    1  UNL1        0.1118
     16 C           3.9174   -0.7353   30.6267 C.ar    1  UNL1        0.1213
     17 C           1.0641    1.4378   30.3581 C.3     1  UNL1        0.2525
     18 O           1.4324   -0.0160   30.3873 O.3     1  UNL1       -0.4707
     19 C           3.8330   -0.5330   32.1107 C.1     1  UNL1        0.1051
     20 N           3.7486   -0.3306   33.5945 N.1     1  UNL1       -0.1907
     21 C           6.0944   -2.1202   19.6219 C.3     1  UNL1        0.1064
     22 C           4.8980   -2.0522   18.7195 C.3     1  UNL1        0.1483
     23 O           4.8521   -2.8825   17.4711 O.3     1  UNL1       -0.3786
     24 H           4.0161   -2.7214   17.0063 H       1  UNL1        0.2108
     25 C           3.7476   -1.1539   19.0657 C.ar    1  UNL1        0.0015
     26 C           2.6333   -1.6622   19.9316 C.ar    1  UNL1       -0.0020
     27 C           1.4829   -0.7640   20.2777 C.ar    1  UNL1        0.0060
     28 C           1.4469    0.6426   19.7578 C.ar    1  UNL1        0.0748
     29 C           2.5612    1.1509   18.8919 C.ar    1  UNL1        0.0233
     30 C           3.7116    0.2527   18.5458 C.ar    1  UNL1       -0.0238
     31 C           4.8260    0.7610   17.6798 C.3     1  UNL1        0.0306
     32 C           2.2542    2.5736   18.5288 C.3     1  UNL1        0.2352
     33 O           0.9500    2.9445   19.1704 O.3     1  UNL1       -0.4404
     34 C           0.4511    1.7511   19.9300 C.2     1  UNL1        0.3413
     35 O          -0.8204    1.6789   20.7225 O.2     1  UNL1       -0.2449
@<TRIPOS>BOND
     1    17    18    1
     2    18    11    1
     3    11    12   ar
     4    12    13   ar
     5    13     8    1
     6     8     9    1
     7     8     7    1
     8     7     1    1
     9     1     2    1
    10     2     3    1
    11     3     4    1
    12     4    21    1
    13    21    22    1
    14    22    23    1
    15    22    25    1
    16    25    26   ar
    17    26    27   ar
    18    27    28   ar
    19    28    29   ar
    20    29    30   ar
    21    30    31    1
    22    29    32    1
    23    32    33    1
    24    33    34    1
    25    34    35    2
    26     4     5    1
    27     5     6    1
    28    13    14   ar
    29    14    15   ar
    30    15    16   ar
    31    16    19    1
    32    19    20    3
    33    16    11   ar
    34     6     1    1
    35    30    25   ar
    36    34    28    1
    37     9    10    1
    38    23    24    1
@<TRIPOS>MOLECULE
*****
 35 38 0 0 0
SMALL
GASTEIGER

@<TRIPOS>ATOM
      1 N           1.1827    1.0299   21.8621 N.3     1  UNL1       -0.2679
      2 C           2.6473    1.3278   21.7337 C.3     1  UNL1        0.0897
      3 C           3.3377    1.1415   20.4152 C.3     1  UNL1        0.0897
      4 N           2.5636    0.6574   19.2250 N.3     1  UNL1       -0.2680
      5 C           1.0990    0.3596   19.3534 C.3     1  UNL1        0.0897
      6 C           0.4087    0.5458   20.6719 C.3     1  UNL1        0.0897
      7 C           0.4923    1.2161   23.1806 C.3     1  UNL1        0.1080
      8 C           0.8069    2.4120   24.0298 C.3     1  UNL1        0.1661
      9 O           1.1508    3.7211   23.3835 O.3     1  UNL1       -0.3771
     10 H           1.1245    3.6223   22.4189 H       1  UNL1        0.2109
     11 C          -0.3946    1.4877   27.6975 C.ar    1  UNL1        0.1510
     12 C          -0.3651    1.6012   26.2021 C.ar    1  UNL1        0.0548
     13 C           0.7775    2.2986   25.5252 C.ar    1  UNL1        0.0901
     14 N           1.8906    2.8825   26.3437 N.ar    1  UNL1       -0.2448
     15 C           1.8611    2.7691   27.8391 C.ar    1  UNL1        0.1118
     16 C           0.7185    2.0717   28.5160 C.ar    1  UNL1        0.1213
     17 C          -1.3989   -0.6437   28.7921 C.3     1  UNL1        0.2525
     18 O          -1.5371    0.7904   28.3745 O.3     1  UNL1       -0.4707
     19 C           0.6892    1.9583   30.0115 C.1     1  UNL1        0.1051
     20 N           0.6598    1.8448   31.5069 N.1     1  UNL1       -0.1907
     21 C           3.2540    0.4712   17.9064 C.3     1  UNL1        0.1064
     22 C           3.8089   -0.8715   17.5334 C.3     1  UNL1        0.1483
     23 O           3.5938   -1.4144   16.1518 O.3     1  UNL1       -0.3786
     24 H           4.0138   -2.2857   16.0777 H       1  UNL1        0.2108
     25 C           4.5789   -1.6714   18.5422 C.ar    1  UNL1        0.0015
     26 C           3.8577   -2.6094   19.4641 C.ar    1  UNL1       -0.0020
     27 C           4.6277   -3.4093   20.4727 C.ar    1  UNL1        0.0060
     28 C           6.1188   -3.2711   20.5594 C.ar    1  UNL1        0.0748
     29 C           6.8399   -2.3331   19.6375 C.ar    1  UNL1        0.0233
     30 C           6.0700   -1.5332   18.6288 C.ar    1  UNL1       -0.0238
     31 C           6.7911   -0.5951   17.7068 C.3     1  UNL1        0.0306
     32 C           8.3043   -2.4065   19.9540 C.3     1  UNL1        0.2352
     33 O           8.4882   -3.3899   21.0716 O.3     1  UNL1       -0.4404
     34 C           7.1374   -3.9243   21.4458 C.2     1  UNL1        0.3413
     35 O           6.8550   -4.9345   22.5181 O.2     1  UNL1       -0.2449
@<TRIPOS>BOND
     1    17    18    1
     2    18    11    1
     3    11    12   ar
     4    12    13   ar
     5    13     8    1
     6     8     9    1
     7     8     7    1
     8     7     1    1
     9     1     2    1
    10     2     3    1
    11     3     4    1
    12     4    21    1
    13    21    22    1
    14    22    23    1
    15    22    25    1
    16    25    26   ar
    17    26    27   ar
    18    27    28   ar
    19    28    29   ar
    20    29    30   ar
    21    30    31    1
    22    29    32    1
    23    32    33    1
    24    33    34    1
    25    34    35    2
    26     4     5    1
    27     5     6    1
    28    13    14   ar
    29    14    15   ar
    30    15    16   ar
    31    16    19    1
    32    19    20    3
    33    16    11   ar
    34     6     1    1
    35    30    25   ar
    36    34    28    1
    37     9    10    1
    38    23    24    1
@<TRIPOS>MOLECULE
*****
 35 38 0 0 0
SMALL
GASTEIGER

@<TRIPOS>ATOM
      1 N           5.4364   -1.4179   24.0906 N.3     1  UNL1       -0.2679
      2 C           5.0190   -2.7341   23.5045 C.3     1  UNL1        0.0897
      3 C           5.2278   -3.0047   22.0440 C.3     1  UNL1        0.0897
      4 N           5.8539   -1.9591   21.1695 N.3     1  UNL1       -0.2680
      5 C           6.2713   -0.6429   21.7556 C.3     1  UNL1        0.0897
      6 C           6.0625   -0.3723   23.2161 C.3     1  UNL1        0.0897
      7 C           5.2276   -1.1472   25.5511 C.3     1  UNL1        0.1080
      8 C           3.8369   -1.0604   26.1066 C.3     1  UNL1        0.1661
      9 O           3.4147   -1.9752   27.2178 O.3     1  UNL1       -0.3771
     10 H           4.1541   -2.5556   27.4573 H       1  UNL1        0.2109
     11 C           1.3149    1.9960   25.8890 C.ar    1  UNL1        0.1510
     12 C           2.2832    0.9942   26.4447 C.ar    1  UNL1        0.0548
     13 C           2.8686   -0.0586   25.5509 C.ar    1  UNL1        0.0901
     14 N           2.4856   -0.1098   24.1015 N.ar    1  UNL1       -0.2448
     15 C           1.5173    0.8920   23.5459 C.ar    1  UNL1        0.1118
     16 C           0.9319    1.9449   24.4397 C.ar    1  UNL1        0.1213
     17 C           0.1158    2.6618   28.0956 C.3     1  UNL1        0.2525
     18 O           0.7294    3.0489   26.7827 O.3     1  UNL1       -0.4707
     19 C          -0.0365    2.9466   23.8839 C.1     1  UNL1        0.1051
     20 N          -1.0050    3.9483   23.3282 N.1     1  UNL1       -0.1907
     21 C           6.0627   -2.2297   19.7090 C.3     1  UNL1        0.1064
     22 C           4.9181   -2.0913   18.7495 C.3     1  UNL1        0.1483
     23 O           4.9245   -2.8559   17.4591 O.3     1  UNL1       -0.3786
     24 H           4.1178   -2.6541   16.9597 H       1  UNL1        0.2108
     25 C           3.7670   -1.1881   19.0805 C.ar    1  UNL1        0.0015
     26 C           2.6290   -1.6982   19.9138 C.ar    1  UNL1       -0.0020
     27 C           1.4780   -0.7951   20.2447 C.ar    1  UNL1        0.0060
     28 C           1.4650    0.6181   19.7423 C.ar    1  UNL1        0.0748
     29 C           2.6031    1.1283   18.9089 C.ar    1  UNL1        0.0233
     30 C           3.7541    0.2252   18.5780 C.ar    1  UNL1       -0.0238
     31 C           4.8922    0.7354   17.7446 C.3     1  UNL1        0.0306
     32 C           2.3157    2.5579   18.5572 C.3     1  UNL1        0.2352
     33 O           0.9999    2.9312   19.1732 O.3     1  UNL1       -0.4404
     34 C           0.4742    1.7324   19.9056 C.2     1  UNL1        0.3413
     35 O          -0.8159    1.6605   20.6676 O.2     1  UNL1       -0.2449
@<TRIPOS>BOND
     1    17    18    1
     2    18    11    1
     3    11    12   ar
     4    12    13   ar
     5    13     8    1
     6     8     9    1
     7     8     7    1
     8     7     1    1
     9     1     2    1
    10     2     3    1
    11     3     4    1
    12     4    21    1
    13    21    22    1
    14    22    23    1
    15    22    25    1
    16    25    26   ar
    17    26    27   ar
    18    27    28   ar
    19    28    29   ar
    20    29    30   ar
    21    30    31    1
    22    29    32    1
    23    32    33    1
    24    33    34    1
    25    34    35    2
    26     4     5    1
    27     5     6    1
    28    13    14   ar
    29    14    15   ar
    30    15    16   ar
    31    16    19    1
    32    19    20    3
    33    16    11   ar
    34     6     1    1
    35    30    25   ar
    36    34    28    1
    37     9    10    1
    38    23    24    1
@<TRIPOS>MOLECULE
*****
 35 38 0 0 0
SMALL
GASTEIGER

@<TRIPOS>ATOM
      1 N          -1.9699    3.7510   20.3407 N.3     1  UNL1       -0.2679
      2 C          -1.1235    2.7727   21.0999 C.3     1  UNL1        0.0897
      3 C          -0.0375    2.0153   20.3950 C.3     1  UNL1        0.0897
      4 N           0.2020    2.2363   18.9308 N.3     1  UNL1       -0.2680
      5 C          -0.6444    3.2146   18.1716 C.3     1  UNL1        0.0897
      6 C          -1.7303    3.9720   18.8766 C.3     1  UNL1        0.0897
      7 C          -3.0559    4.5084   21.0456 C.3     1  UNL1        0.1080
      8 C          -4.2532    3.7798   21.5802 C.3     1  UNL1        0.1661
      9 O          -4.6684    2.4726   20.9728 O.3     1  UNL1       -0.3771
     10 H          -4.0613    2.2438   20.2517 H       1  UNL1        0.2109
     11 C          -5.3740    4.6924   25.2762 C.ar    1  UNL1        0.1510
     12 C          -4.5921    4.1140   24.1342 C.ar    1  UNL1        0.0548
     13 C          -5.0351    4.3582   22.7221 C.ar    1  UNL1        0.0901
     14 N          -6.2599    5.1809   22.4519 N.ar    1  UNL1       -0.2448
     15 C          -7.0417    5.7594   23.5939 C.ar    1  UNL1        0.1118
     16 C          -6.5988    5.5151   25.0060 C.ar    1  UNL1        0.1213
     17 C          -3.5239    4.0103   26.9679 C.3     1  UNL1        0.2525
     18 O          -4.9311    4.4482   26.6884 O.3     1  UNL1       -0.4707
     19 C          -7.3807    6.0937   26.1479 C.1     1  UNL1        0.1051
     20 N          -8.1627    6.6721   27.2898 N.1     1  UNL1       -0.1907
     21 C           1.2880    1.4789   18.2259 C.3     1  UNL1        0.1064
     22 C           2.6523    1.3771   18.8411 C.3     1  UNL1        0.1483
     23 O           3.5744    2.5600   18.8207 O.3     1  UNL1       -0.3786
     24 H           4.4090    2.3269   19.2566 H       1  UNL1        0.2108
     25 C           3.0944    0.0923   19.4769 C.ar    1  UNL1        0.0015
     26 C           2.8810   -0.1304   20.9447 C.ar    1  UNL1       -0.0020
     27 C           3.3231   -1.4151   21.5804 C.ar    1  UNL1        0.0060
     28 C           3.9786   -2.4770   20.7482 C.ar    1  UNL1        0.0748
     29 C           4.1920   -2.2543   19.2803 C.ar    1  UNL1        0.0233
     30 C           3.7499   -0.9696   18.6445 C.ar    1  UNL1       -0.0238
     31 C           3.9632   -0.7468   17.1766 C.3     1  UNL1        0.0306
     32 C           4.8606   -3.4739   18.7187 C.3     1  UNL1        0.2352
     33 O           5.0604   -4.4505   19.8396 O.3     1  UNL1       -0.4404
     34 C           4.5154   -3.8344   21.0939 C.2     1  UNL1        0.3413
     35 O           4.5083   -4.4649   22.4549 O.2     1  UNL1       -0.2449
@<TRIPOS>BOND
     1    17    18    1
     2    18    11    1
     3    11    12   ar
     4    12    13   ar
     5    13     8    1
     6     8     9    1
     7     8     7    1
     8     7     1    1
     9     1     2    1
    10     2     3    1
    11     3     4    1
    12     4    21    1
    13    21    22    1
    14    22    23    1
    15    22    25    1
    16    25    26   ar
    17    26    27   ar
    18    27    28   ar
    19    28    29   ar
    20    29    30   ar
    21    30    31    1
    22    29    32    1
    23    32    33    1
    24    33    34    1
    25    34    35    2
    26     4     5    1
    27     5     6    1
    28    13    14   ar
    29    14    15   ar
    30    15    16   ar
    31    16    19    1
    32    19    20    3
    33    16    11   ar
    34     6     1    1
    35    30    25   ar
    36    34    28    1
    37     9    10    1
    38    23    24    1
@<TRIPOS>MOLECULE
*****
 35 38 0 0 0
SMALL
GASTEIGER

@<TRIPOS>ATOM
      1 N           5.9799   -3.0095   22.5911 N.3     1  UNL1       -0.2679
      2 C           6.7948   -2.0637   21.7595 C.3     1  UNL1        0.0897
      3 C           6.4834   -1.8866   20.3029 C.3     1  UNL1        0.0897
      4 N           5.3571   -2.6553   19.6779 N.3     1  UNL1       -0.2680
      5 C           4.5422   -3.6011   20.5095 C.3     1  UNL1        0.0897
      6 C           4.8536   -3.7781   21.9661 C.3     1  UNL1        0.0897
      7 C           6.2912   -3.1866   24.0477 C.3     1  UNL1        0.1080
      8 C           6.8965   -4.4697   24.5347 C.3     1  UNL1        0.1661
      9 O           7.4974   -5.4345   23.5559 O.3     1  UNL1       -0.3771
     10 H           7.4124   -5.0787   22.6575 H       1  UNL1        0.2109
     11 C           6.5511   -4.0449   28.4653 C.ar    1  UNL1        0.1510
     12 C           6.5468   -3.7266   26.9995 C.ar    1  UNL1        0.0548
     13 C           6.9008   -4.7881   26.0005 C.ar    1  UNL1        0.0901
     14 N           7.2591   -6.1678   26.4674 N.ar    1  UNL1       -0.2448
     15 C           7.2634   -6.4861   27.9332 C.ar    1  UNL1        0.1118
     16 C           6.9094   -5.4246   28.9322 C.ar    1  UNL1        0.1213
     17 C           7.1245   -1.8262   29.6895 C.3     1  UNL1        0.2525
     18 O           6.1971   -2.9834   29.4644 O.3     1  UNL1       -0.4707
     19 C           6.9137   -5.7430   30.3981 C.1     1  UNL1        0.1051
     20 N           6.9181   -6.0612   31.8639 N.1     1  UNL1       -0.1907
     21 C           5.0457   -2.4782   18.2214 C.3     1  UNL1        0.1064
     22 C           4.0254   -1.4668   17.7901 C.3     1  UNL1        0.1483
     23 O           3.7093   -1.2943   16.3340 O.3     1  UNL1       -0.3786
     24 H           3.0340   -0.6058   16.2291 H       1  UNL1        0.2108
     25 C           3.3211   -0.6280   18.8151 C.ar    1  UNL1        0.0015
     26 C           2.1052   -1.1607   19.5133 C.ar    1  UNL1       -0.0020
     27 C           1.4009   -0.3219   20.5381 C.ar    1  UNL1        0.0060
     28 C           1.9127    1.0497   20.8648 C.ar    1  UNL1        0.0748
     29 C           3.1286    1.5826   20.1666 C.ar    1  UNL1        0.0233
     30 C           3.8329    0.7438   19.1417 C.ar    1  UNL1       -0.0238
     31 C           5.0489    1.2765   18.4434 C.3     1  UNL1        0.0306
     32 C           3.3987    2.9610   20.6929 C.3     1  UNL1        0.2352
     33 O           2.3496    3.2801   21.7164 O.3     1  UNL1       -0.4404
     34 C           1.4312    2.0989   21.8227 C.2     1  UNL1        0.3413
     35 O           0.2404    1.9865   22.7279 O.2     1  UNL1       -0.2449
@<TRIPOS>BOND
     1    17    18    1
     2    18    11    1
     3    11    12   ar
     4    12    13   ar
     5    13     8    1
     6     8     9    1
     7     8     7    1
     8     7     1    1
     9     1     2    1
    10     2     3    1
    11     3     4    1
    12     4    21    1
    13    21    22    1
    14    22    23    1
    15    22    25    1
    16    25    26   ar
    17    26    27   ar
    18    27    28   ar
    19    28    29   ar
    20    29    30   ar
    21    30    31    1
    22    29    32    1
    23    32    33    1
    24    33    34    1
    25    34    35    2
    26     4     5    1
    27     5     6    1
    28    13    14   ar
    29    14    15   ar
    30    15    16   ar
    31    16    19    1
    32    19    20    3
    33    16    11   ar
    34     6     1    1
    35    30    25   ar
    36    34    28    1
    37     9    10    1
    38    23    24    1
