@<TRIPOS>MOLECULE
*****
 22 24 0 0 0
SMALL
GASTEIGER

@<TRIPOS>ATOM
      1 C          -7.4422  -18.3344   22.1009 C.3     1  UNL1        0.1038
      2 C          -8.0267  -19.6046   21.5577 C.3     1  UNL1        0.2106
      3 O          -9.5011  -19.7014   21.2995 O.3     1  UNL1       -0.4755
      4 C         -10.3911  -18.5280   21.5846 C.ar    1  UNL1        0.1379
      5 C         -11.8655  -18.6249   21.3264 C.ar    1  UNL1        0.0367
      6 C         -12.7554  -17.4515   21.6114 C.ar    1  UNL1        0.0031
      7 C         -12.1709  -16.1814   22.1546 C.ar    1  UNL1       -0.0000
      8 C         -10.6965  -16.0845   22.4127 C.ar    1  UNL1        0.0022
      9 C          -9.8066  -17.2579   22.1277 C.ar    1  UNL1        0.0513
     10 C          -8.3321  -17.1611   22.3859 C.3     1  UNL1        0.1959
     11 C          -5.9677  -18.2377   22.3591 C.3     1  UNL1        0.0763
     12 C          -3.7966  -19.4616   21.6252 C.3     1  UNL1        0.0859
     13 N          -4.9917  -18.6208   21.2864 N.3     1  UNL1       -0.2961
     14 H          -5.5187  -19.1305   20.5772 H       1  UNL1        0.1233
     15 O          -7.7476  -15.8909   22.9291 O.3     1  UNL1       -0.4748
     16 C          -7.4648  -15.7629   24.3967 C.ar    1  UNL1        0.1348
     17 C          -8.5724  -15.9420   25.3922 C.ar    1  UNL1        0.0366
     18 C          -8.2896  -15.8140   26.8597 C.ar    1  UNL1        0.0031
     19 C          -6.8993  -15.5069   27.3317 C.ar    1  UNL1       -0.0001
     20 C          -5.7917  -15.3279   26.3361 C.ar    1  UNL1       -0.0013
     21 C          -6.0745  -15.4559   24.8686 C.ar    1  UNL1        0.0121
     22 C          -4.9669  -15.2768   23.8729 C.3     1  UNL1        0.0342
@<TRIPOS>BOND
     1    12    13    1
     2    13    11    1
     3     1    11    1
     4     1     2    1
     5     2     3    1
     6     3     4    1
     7     4     5   ar
     8     5     6   ar
     9     6     7   ar
    10     7     8   ar
    11     8     9   ar
    12     9    10    1
    13    10    15    1
    14    15    16    1
    15    16    17   ar
    16    17    18   ar
    17    18    19   ar
    18    19    20   ar
    19    20    21   ar
    20    21    22    1
    21    10     1    1
    22    21    16   ar
    23     9     4   ar
    24    13    14    1
@<TRIPOS>MOLECULE
*****
 22 24 0 0 0
SMALL
GASTEIGER

@<TRIPOS>ATOM
      1 C          -7.1908  -18.7223   21.2493 C.3     1  UNL1        0.1038
      2 C          -5.7633  -19.0239   21.5975 C.3     1  UNL1        0.2106
      3 O          -5.0507  -18.1949   22.6247 O.3     1  UNL1       -0.4755
      4 C          -5.7656  -17.0643   23.3035 C.ar    1  UNL1        0.1379
      5 C          -5.0530  -16.2354   24.3306 C.ar    1  UNL1        0.0367
      6 C          -5.7679  -15.1049   25.0094 C.ar    1  UNL1        0.0031
      7 C          -7.1955  -14.8034   24.6612 C.ar    1  UNL1       -0.0000
      8 C          -7.9080  -15.6323   23.6340 C.ar    1  UNL1        0.0022
      9 C          -7.1931  -16.7628   22.9552 C.ar    1  UNL1        0.0513
     10 C          -7.9057  -17.5918   21.9281 C.3     1  UNL1        0.1959
     11 C          -7.9034  -19.5514   20.2221 C.3     1  UNL1        0.0763
     12 C         -10.3214  -19.5357   19.2719 C.3     1  UNL1        0.0859
     13 N          -8.9528  -18.9270   19.3509 N.3     1  UNL1       -0.2961
     14 H          -9.0752  -17.9687   19.6782 H       1  UNL1        0.1233
     15 O          -9.3332  -17.2903   21.5798 O.3     1  UNL1       -0.4748
     16 C         -10.4371  -17.7247   22.4979 C.ar    1  UNL1        0.1348
     17 C         -10.1315  -18.6020   23.6756 C.ar    1  UNL1        0.0366
     18 C         -11.2353  -19.0363   24.5937 C.ar    1  UNL1        0.0031
     19 C         -12.6447  -18.5933   24.3341 C.ar    1  UNL1       -0.0001
     20 C         -12.9503  -17.7160   23.1564 C.ar    1  UNL1       -0.0013
     21 C         -11.8465  -17.2817   22.2383 C.ar    1  UNL1        0.0121
     22 C         -12.1520  -16.4043   21.0606 C.3     1  UNL1        0.0342
@<TRIPOS>BOND
     1    12    13    1
     2    13    11    1
     3     1    11    1
     4     1     2    1
     5     2     3    1
     6     3     4    1
     7     4     5   ar
     8     5     6   ar
     9     6     7   ar
    10     7     8   ar
    11     8     9   ar
    12     9    10    1
    13    10    15    1
    14    15    16    1
    15    16    17   ar
    16    17    18   ar
    17    18    19   ar
    18    19    20   ar
    19    20    21   ar
    20    21    22    1
    21    10     1    1
    22    21    16   ar
    23     9     4   ar
    24    13    14    1
@<TRIPOS>MOLECULE
*****
 22 24 0 0 0
SMALL
GASTEIGER

@<TRIPOS>ATOM
      1 C          -6.9068  -16.2360   23.4951 C.3     1  UNL1        0.1038
      2 C          -5.4909  -16.5990   23.8319 C.3     1  UNL1        0.2106
      3 O          -4.8383  -17.7728   23.1639 O.3     1  UNL1       -0.4755
      4 C          -5.6017  -18.5836   22.1589 C.ar    1  UNL1        0.1379
      5 C          -4.9491  -19.7574   21.4908 C.ar    1  UNL1        0.0367
      6 C          -5.7124  -20.5682   20.4858 C.ar    1  UNL1        0.0031
      7 C          -7.1283  -20.2052   20.1490 C.ar    1  UNL1       -0.0000
      8 C          -7.7809  -19.0314   20.8170 C.ar    1  UNL1        0.0022
      9 C          -7.0176  -18.2206   21.8220 C.ar    1  UNL1        0.0513
     10 C          -7.6701  -17.0468   22.4901 C.3     1  UNL1        0.1959
     11 C          -7.5594  -15.0622   24.1632 C.3     1  UNL1        0.0763
     12 C          -8.0920  -15.5745   26.6539 C.3     1  UNL1        0.0859
     13 N          -7.3240  -14.8032   25.6218 N.3     1  UNL1       -0.2961
     14 H          -6.3351  -14.9812   25.7967 H       1  UNL1        0.1233
     15 O          -9.0860  -16.6838   22.1533 O.3     1  UNL1       -0.4748
     16 C         -10.2218  -17.3383   22.8823 C.ar    1  UNL1        0.1348
     17 C          -9.9444  -18.2364   24.0513 C.ar    1  UNL1        0.0366
     18 C         -11.0802  -18.8909   24.7803 C.ar    1  UNL1        0.0031
     19 C         -12.4934  -18.6474   24.3404 C.ar    1  UNL1       -0.0001
     20 C         -12.7709  -17.7493   23.1714 C.ar    1  UNL1       -0.0013
     21 C         -11.6351  -17.0948   22.4424 C.ar    1  UNL1        0.0121
     22 C         -11.9124  -16.1967   21.2734 C.3     1  UNL1        0.0342
@<TRIPOS>BOND
     1    12    13    1
     2    13    11    1
     3     1    11    1
     4     1     2    1
     5     2     3    1
     6     3     4    1
     7     4     5   ar
     8     5     6   ar
     9     6     7   ar
    10     7     8   ar
    11     8     9   ar
    12     9    10    1
    13    10    15    1
    14    15    16    1
    15    16    17   ar
    16    17    18   ar
    17    18    19   ar
    18    19    20   ar
    19    20    21   ar
    20    21    22    1
    21    10     1    1
    22    21    16   ar
    23     9     4   ar
    24    13    14    1
@<TRIPOS>MOLECULE
*****
 22 24 0 0 0
SMALL
GASTEIGER

@<TRIPOS>ATOM
      1 C          -7.0149  -16.4573   23.8779 C.3     1  UNL1        0.1038
      2 C          -5.5452  -16.1573   23.8708 C.3     1  UNL1        0.2106
      3 O          -4.6057  -17.0283   23.0906 O.3     1  UNL1       -0.4755
      4 C          -5.1358  -18.1994   22.3176 C.ar    1  UNL1        0.1379
      5 C          -4.1963  -19.0704   21.5375 C.ar    1  UNL1        0.0367
      6 C          -4.7265  -20.2414   20.7645 C.ar    1  UNL1        0.0031
      7 C          -6.1961  -20.5415   20.7716 C.ar    1  UNL1       -0.0000
      8 C          -7.1357  -19.6705   21.5517 C.ar    1  UNL1        0.0022
      9 C          -6.6055  -18.4994   22.3247 C.ar    1  UNL1        0.0513
     10 C          -7.5450  -17.6283   23.1049 C.3     1  UNL1        0.1959
     11 C          -7.9544  -15.5862   24.6581 C.3     1  UNL1        0.0763
     12 C          -8.0835  -15.5649   27.2528 C.3     1  UNL1        0.0859
     13 N          -7.5250  -15.0115   25.9754 N.3     1  UNL1       -0.2961
     14 H          -6.5119  -15.1175   26.0267 H       1  UNL1        0.1233
     15 O          -9.0147  -17.9284   23.1120 O.3     1  UNL1       -0.4748
     16 C          -9.8826  -17.4534   21.9845 C.ar    1  UNL1        0.1348
     17 C          -9.8442  -16.0142   21.5634 C.ar    1  UNL1        0.0366
     18 C         -10.7121  -15.5393   20.4360 C.ar    1  UNL1        0.0031
     19 C         -11.6184  -16.5035   19.7297 C.ar    1  UNL1       -0.0001
     20 C         -11.6568  -17.9426   20.1508 C.ar    1  UNL1       -0.0013
     21 C         -10.7889  -18.4176   21.2782 C.ar    1  UNL1        0.0121
     22 C         -10.8273  -19.8568   21.6994 C.3     1  UNL1        0.0342
@<TRIPOS>BOND
     1    12    13    1
     2    13    11    1
     3     1    11    1
     4     1     2    1
     5     2     3    1
     6     3     4    1
     7     4     5   ar
     8     5     6   ar
     9     6     7   ar
    10     7     8   ar
    11     8     9   ar
    12     9    10    1
    13    10    15    1
    14    15    16    1
    15    16    17   ar
    16    17    18   ar
    17    18    19   ar
    18    19    20   ar
    19    20    21   ar
    20    21    22    1
    21    10     1    1
    22    21    16   ar
    23     9     4   ar
    24    13    14    1
@<TRIPOS>MOLECULE
*****
 22 24 0 0 0
SMALL
GASTEIGER

@<TRIPOS>ATOM
      1 C          -9.5099  -17.3614   21.6948 C.3     1  UNL1        0.1038
      2 C          -9.8748  -18.6163   20.9586 C.3     1  UNL1        0.2106
      3 O          -8.8363  -19.6701   20.7119 O.3     1  UNL1       -0.4755
      4 C          -7.4327  -19.4689   21.2014 C.ar    1  UNL1        0.1379
      5 C          -6.3941  -20.5227   20.9547 C.ar    1  UNL1        0.0367
      6 C          -4.9906  -20.3215   21.4442 C.ar    1  UNL1        0.0031
      7 C          -4.6256  -19.0665   22.1803 C.ar    1  UNL1       -0.0000
      8 C          -5.6642  -18.0128   22.4271 C.ar    1  UNL1        0.0022
      9 C          -7.0677  -18.2140   21.9376 C.ar    1  UNL1        0.0513
     10 C          -8.1064  -17.1602   22.1843 C.3     1  UNL1        0.1959
     11 C         -10.5486  -16.3076   21.9415 C.3     1  UNL1        0.0763
     12 C         -12.7567  -17.3688   22.8065 C.3     1  UNL1        0.0859
     13 N         -11.5603  -16.4929   23.0334 N.3     1  UNL1       -0.2961
     14 H         -11.0611  -16.8781   23.8351 H       1  UNL1        0.1233
     15 O          -7.7415  -15.9053   22.9205 O.3     1  UNL1       -0.4748
     16 C          -7.5682  -15.9331   24.4102 C.ar    1  UNL1        0.1348
     17 C          -8.7041  -16.3650   25.2895 C.ar    1  UNL1        0.0366
     18 C          -8.5307  -16.3929   26.7791 C.ar    1  UNL1        0.0031
     19 C          -7.2214  -15.9888   27.3895 C.ar    1  UNL1       -0.0001
     20 C          -6.0855  -15.5569   26.5103 C.ar    1  UNL1       -0.0013
     21 C          -6.2589  -15.5291   25.0206 C.ar    1  UNL1        0.0121
     22 C          -5.1230  -15.0972   24.1413 C.3     1  UNL1        0.0342
@<TRIPOS>BOND
     1    12    13    1
     2    13    11    1
     3     1    11    1
     4     1     2    1
     5     2     3    1
     6     3     4    1
     7     4     5   ar
     8     5     6   ar
     9     6     7   ar
    10     7     8   ar
    11     8     9   ar
    12     9    10    1
    13    10    15    1
    14    15    16    1
    15    16    17   ar
    16    17    18   ar
    17    18    19   ar
    18    19    20   ar
    19    20    21   ar
    20    21    22    1
    21    10     1    1
    22    21    16   ar
    23     9     4   ar
    24    13    14    1
@<TRIPOS>MOLECULE
*****
 22 24 0 0 0
SMALL
GASTEIGER

@<TRIPOS>ATOM
      1 C          -6.0861  -18.3885   22.3186 C.3     1  UNL1        0.1038
      2 C          -6.2532  -19.7809   21.7863 C.3     1  UNL1        0.2106
      3 O          -7.5579  -20.1988   21.1755 O.3     1  UNL1       -0.4755
      4 C          -8.6955  -19.2242   21.0969 C.ar    1  UNL1        0.1379
      5 C         -10.0002  -19.6421   20.4861 C.ar    1  UNL1        0.0367
      6 C         -11.1378  -18.6676   20.4075 C.ar    1  UNL1        0.0031
      7 C         -10.9706  -17.2752   20.9398 C.ar    1  UNL1       -0.0000
      8 C          -9.6660  -16.8573   21.5506 C.ar    1  UNL1        0.0022
      9 C          -8.5284  -17.8318   21.6292 C.ar    1  UNL1        0.0513
     10 C          -7.2236  -17.4140   22.2400 C.3     1  UNL1        0.1959
     11 C          -4.7813  -17.9707   22.9294 C.3     1  UNL1        0.0763
     12 C          -2.3655  -18.4977   22.1319 C.3     1  UNL1        0.0859
     13 N          -3.6068  -17.6597   22.0497 N.3     1  UNL1       -0.2961
     14 H          -3.9373  -17.7166   21.0864 H       1  UNL1        0.1233
     15 O          -7.0565  -16.0216   22.7723 O.3     1  UNL1       -0.4748
     16 C          -6.9085  -15.7955   24.2478 C.ar    1  UNL1        0.1348
     17 C          -5.5532  -15.5316   24.8339 C.ar    1  UNL1        0.0366
     18 C          -5.4052  -15.3054   26.3093 C.ar    1  UNL1        0.0031
     19 C          -6.6126  -15.3432   27.1987 C.ar    1  UNL1       -0.0001
     20 C          -7.9678  -15.6072   26.6126 C.ar    1  UNL1       -0.0013
     21 C          -8.1158  -15.8333   25.1372 C.ar    1  UNL1        0.0121
     22 C          -9.4711  -16.0972   24.5510 C.3     1  UNL1        0.0342
@<TRIPOS>BOND
     1    12    13    1
     2    13    11    1
     3     1    11    1
     4     1     2    1
     5     2     3    1
     6     3     4    1
     7     4     5   ar
     8     5     6   ar
     9     6     7   ar
    10     7     8   ar
    11     8     9   ar
    12     9    10    1
    13    10    15    1
    14    15    16    1
    15    16    17   ar
    16    17    18   ar
    17    18    19   ar
    18    19    20   ar
    19    20    21   ar
    20    21    22    1
    21    10     1    1
    22    21    16   ar
    23     9     4   ar
    24    13    14    1
@<TRIPOS>MOLECULE
*****
 22 24 0 0 0
SMALL
GASTEIGER

@<TRIPOS>ATOM
      1 C          -9.9907  -18.4525   20.6094 C.3     1  UNL1        0.1038
      2 C          -9.7416  -19.6170   19.6974 C.3     1  UNL1        0.2106
      3 O          -8.3819  -20.2478   19.6407 O.3     1  UNL1       -0.4755
      4 C          -7.2712  -19.7141   20.4960 C.ar    1  UNL1        0.1379
      5 C          -5.9115  -20.3450   20.4393 C.ar    1  UNL1        0.0367
      6 C          -4.8009  -19.8112   21.2947 C.ar    1  UNL1        0.0031
      7 C          -5.0500  -18.6467   22.2067 C.ar    1  UNL1       -0.0000
      8 C          -6.4097  -18.0159   22.2634 C.ar    1  UNL1        0.0022
      9 C          -7.5203  -18.5496   21.4081 C.ar    1  UNL1        0.0513
     10 C          -8.8801  -17.9188   21.4648 C.3     1  UNL1        0.1959
     11 C         -11.3505  -17.8217   20.6661 C.3     1  UNL1        0.0763
     12 C         -11.4653  -15.5708   19.3738 C.3     1  UNL1        0.0859
     13 N         -11.8515  -17.0141   19.5056 N.3     1  UNL1       -0.2961
     14 H         -11.5295  -17.4836   18.6593 H       1  UNL1        0.1233
     15 O          -9.1291  -16.7542   22.3768 O.3     1  UNL1       -0.4748
     16 C          -9.0704  -16.9405   23.8641 C.ar    1  UNL1        0.1348
     17 C          -9.7902  -18.0898   24.5051 C.ar    1  UNL1        0.0366
     18 C          -9.7314  -18.2760   25.9923 C.ar    1  UNL1        0.0031
     19 C          -8.9529  -17.3128   26.8385 C.ar    1  UNL1       -0.0001
     20 C          -8.2331  -16.1634   26.1976 C.ar    1  UNL1       -0.0013
     21 C          -8.2919  -15.9773   24.7104 C.ar    1  UNL1        0.0121
     22 C          -7.5721  -14.8279   24.0693 C.3     1  UNL1        0.0342
@<TRIPOS>BOND
     1    12    13    1
     2    13    11    1
     3     1    11    1
     4     1     2    1
     5     2     3    1
     6     3     4    1
     7     4     5   ar
     8     5     6   ar
     9     6     7   ar
    10     7     8   ar
    11     8     9   ar
    12     9    10    1
    13    10    15    1
    14    15    16    1
    15    16    17   ar
    16    17    18   ar
    17    18    19   ar
    18    19    20   ar
    19    20    21   ar
    20    21    22    1
    21    10     1    1
    22    21    16   ar
    23     9     4   ar
    24    13    14    1
@<TRIPOS>MOLECULE
*****
 22 24 0 0 0
SMALL
GASTEIGER

@<TRIPOS>ATOM
      1 C          -6.9786  -17.0051   23.3109 C.3     1  UNL1        0.1038
      2 C          -6.1393  -15.7724   23.4724 C.3     1  UNL1        0.2106
      3 O          -4.6702  -15.8208   23.1732 O.3     1  UNL1       -0.4755
      4 C          -4.0404  -17.1019   22.7125 C.ar    1  UNL1        0.1379
      5 C          -2.5714  -17.1503   22.4133 C.ar    1  UNL1        0.0367
      6 C          -1.9417  -18.4314   21.9527 C.ar    1  UNL1        0.0031
      7 C          -2.7810  -19.6641   21.7913 C.ar    1  UNL1       -0.0000
      8 C          -4.2500  -19.6157   22.0905 C.ar    1  UNL1        0.0022
      9 C          -4.8797  -18.3346   22.5511 C.ar    1  UNL1        0.0513
     10 C          -6.3488  -18.2861   22.8503 C.3     1  UNL1        0.1959
     11 C          -8.4477  -16.9566   23.6102 C.3     1  UNL1        0.0763
     12 C         -10.5838  -16.3070   22.2818 C.3     1  UNL1        0.0859
     13 N          -9.3099  -15.9110   22.9674 N.3     1  UNL1       -0.2961
     14 H          -9.5635  -15.2476   23.6996 H       1  UNL1        0.1233
     15 O          -7.1881  -19.5188   22.6889 O.3     1  UNL1       -0.4748
     16 C          -8.3828  -19.4993   21.7819 C.ar    1  UNL1        0.1348
     17 C          -8.2220  -19.1271   20.3378 C.ar    1  UNL1        0.0366
     18 C          -9.4166  -19.1076   19.4309 C.ar    1  UNL1        0.0031
     19 C         -10.7719  -19.4603   19.9681 C.ar    1  UNL1       -0.0001
     20 C         -10.9327  -19.8326   21.4122 C.ar    1  UNL1       -0.0013
     21 C          -9.7381  -19.8521   22.3191 C.ar    1  UNL1        0.0121
     22 C          -9.8988  -20.2243   23.7633 C.3     1  UNL1        0.0342
@<TRIPOS>BOND
     1    12    13    1
     2    13    11    1
     3     1    11    1
     4     1     2    1
     5     2     3    1
     6     3     4    1
     7     4     5   ar
     8     5     6   ar
     9     6     7   ar
    10     7     8   ar
    11     8     9   ar
    12     9    10    1
    13    10    15    1
    14    15    16    1
    15    16    17   ar
    16    17    18   ar
    17    18    19   ar
    18    19    20   ar
    19    20    21   ar
    20    21    22    1
    21    10     1    1
    22    21    16   ar
    23     9     4   ar
    24    13    14    1
@<TRIPOS>MOLECULE
*****
 22 24 0 0 0
SMALL
GASTEIGER

@<TRIPOS>ATOM
      1 C          -6.9599  -16.8024   22.9091 C.3     1  UNL1        0.1038
      2 C          -5.9517  -16.0709   23.7448 C.3     1  UNL1        0.2106
      3 O          -4.5123  -16.4925   23.7233 O.3     1  UNL1       -0.4755
      4 C          -4.0811  -17.6455   22.8661 C.ar    1  UNL1        0.1379
      5 C          -2.6418  -18.0670   22.8447 C.ar    1  UNL1        0.0367
      6 C          -2.2107  -19.2200   21.9875 C.ar    1  UNL1        0.0031
      7 C          -3.2190  -19.9515   21.1518 C.ar    1  UNL1       -0.0000
      8 C          -4.6583  -19.5299   21.1733 C.ar    1  UNL1        0.0022
      9 C          -5.0894  -18.3770   22.0305 C.ar    1  UNL1        0.0513
     10 C          -6.5289  -17.9554   22.0520 C.3     1  UNL1        0.1959
     11 C          -8.3994  -16.3808   22.9306 C.3     1  UNL1        0.0763
     12 C         -10.5103  -15.8425   21.5149 C.3     1  UNL1        0.0859
     13 N          -9.0237  -15.7815   21.7054 N.3     1  UNL1       -0.2961
     14 H          -8.7659  -14.7947   21.6963 H       1  UNL1        0.1233
     15 O          -7.5371  -18.6868   21.2163 O.3     1  UNL1       -0.4748
     16 C          -8.7255  -19.3304   21.8672 C.ar    1  UNL1        0.1348
     17 C          -8.6237  -19.8456   23.2722 C.ar    1  UNL1        0.0366
     18 C          -9.8120  -20.4890   23.9231 C.ar    1  UNL1        0.0031
     19 C         -11.1023  -20.6173   23.1689 C.ar    1  UNL1       -0.0001
     20 C         -11.2042  -20.1021   21.7639 C.ar    1  UNL1       -0.0013
     21 C         -10.0158  -19.4586   21.1130 C.ar    1  UNL1        0.0121
     22 C         -10.1176  -18.9434   19.7079 C.3     1  UNL1        0.0342
@<TRIPOS>BOND
     1    12    13    1
     2    13    11    1
     3     1    11    1
     4     1     2    1
     5     2     3    1
     6     3     4    1
     7     4     5   ar
     8     5     6   ar
     9     6     7   ar
    10     7     8   ar
    11     8     9   ar
    12     9    10    1
    13    10    15    1
    14    15    16    1
    15    16    17   ar
    16    17    18   ar
    17    18    19   ar
    18    19    20   ar
    19    20    21   ar
    20    21    22    1
    21    10     1    1
    22    21    16   ar
    23     9     4   ar
    24    13    14    1
