@<TRIPOS>MOLECULE
*****
 23 24 0 0 0
SMALL
GASTEIGER

@<TRIPOS>ATOM
      1 C           8.2841   -0.5247   34.5458 C.2     1  UNL1        0.0412
      2 C           7.2191   -0.0658   35.4972 C.2     1  UNL1       -0.0326
      3 C           5.7980   -0.5032   35.2999 C.3     1  UNL1        0.0443
      4 C           4.7330   -0.0443   36.2513 C.3     1  UNL1        0.1011
      5 N           5.0892    0.8521   37.4001 N.am    1  UNL1       -0.2454
      6 C           4.0242    1.3110   38.3515 C.2     1  UNL1        0.4047
      7 O           4.3805    2.2073   39.5003 O.2     1  UNL1       -0.2262
      8 C           6.5104    1.2895   37.5975 C.3     1  UNL1        0.1011
      9 C           7.5753    0.8305   36.6460 C.3     1  UNL1        0.0443
     10 C           7.5717   -2.3174   32.2482 C.1     1  UNL1       -0.0405
     11 C           7.9279   -1.4211   33.3970 C.1     1  UNL1       -0.0583
     12 C           6.1494   -2.9250   27.2875 C.3     1  UNL1        0.0521
     13 C           6.5044   -3.5175   28.6191 C.ar    1  UNL1        0.0600
     14 C           6.5032   -5.0063   28.8018 C.ar    1  UNL1        0.0148
     15 C           6.8581   -5.5988   30.1333 C.ar    1  UNL1        0.0034
     16 C           7.2143   -4.7025   31.2821 C.ar    1  UNL1        0.0276
     17 C           7.2155   -3.2137   31.0994 C.ar    1  UNL1        0.1224
     18 N           6.8605   -2.6212   29.7679 N.ar    1  UNL1       -0.2414
     19 O           2.6031    0.8736   38.1542 O.3     1  UNL1       -0.4418
     20 C           1.5069    1.4967   38.9666 C.3     1  UNL1        0.1378
     21 C           1.3154    0.2027   39.7007 C.3     1  UNL1        0.0437
     22 C           1.6984    2.7906   38.2325 C.3     1  UNL1        0.0437
     23 C           0.4106    2.1199   39.7790 C.3     1  UNL1        0.0437
@<TRIPOS>BOND
     1    12    13    1
     2    13    14   ar
     3    14    15   ar
     4    15    16   ar
     5    16    17   ar
     6    17    10    1
     7    10    11    3
     8    11     1    1
     9     1     2    2
    10     2     3    1
    11     3     4    1
    12     4     5    1
    13     5     6   am
    14     6     7    2
    15     6    19    1
    16    19    20    1
    17    20    21    1
    18    20    22    1
    19    20    23    1
    20     5     8    1
    21     8     9    1
    22    17    18   ar
    23    18    13   ar
    24     9     2    1
@<TRIPOS>MOLECULE
*****
 23 24 0 0 0
SMALL
GASTEIGER

@<TRIPOS>ATOM
      1 C         -12.3972   -4.7910   19.2869 C.2     1  UNL1        0.0412
      2 C         -12.5318   -3.3682   18.8313 C.2     1  UNL1       -0.0326
      3 C         -13.8701   -2.8399   18.4072 C.3     1  UNL1        0.0443
      4 C         -14.0047   -1.4172   17.9516 C.3     1  UNL1        0.1011
      5 N         -12.8010   -0.5226   17.9201 N.am    1  UNL1       -0.2454
      6 C         -12.9356    0.9001   17.4645 C.2     1  UNL1        0.4047
      7 O         -11.7320    1.7946   17.4330 O.2     1  UNL1       -0.2262
      8 C         -11.4627   -1.0509   18.3442 C.3     1  UNL1        0.1011
      9 C         -11.3281   -2.4737   18.7999 C.3     1  UNL1        0.0443
     10 C         -14.8046   -6.5800   19.3499 C.1     1  UNL1       -0.0405
     11 C         -13.6009   -5.6855   19.3184 C.1     1  UNL1       -0.0583
     12 C         -16.9259  -11.2909   18.7951 C.3     1  UNL1        0.0521
     13 C         -17.0689   -9.8300   19.1040 C.ar    1  UNL1        0.0600
     14 C         -18.4155   -9.2637   19.4443 C.ar    1  UNL1        0.0148
     15 C         -18.5585   -7.8028   19.7531 C.ar    1  UNL1        0.0034
     16 C         -17.3549   -6.9082   19.7217 C.ar    1  UNL1        0.0276
     17 C         -16.0083   -7.4746   19.3813 C.ar    1  UNL1        0.1224
     18 N         -15.8653   -8.9355   19.0725 N.ar    1  UNL1       -0.2414
     19 O         -14.2739    1.4284   17.0404 O.3     1  UNL1       -0.4418
     20 C         -14.7930    2.7099   17.6219 C.3     1  UNL1        0.1378
     21 C         -14.5640    3.3984   16.3091 C.3     1  UNL1        0.0437
     22 C         -15.0220    2.0214   18.9347 C.3     1  UNL1        0.0437
     23 C         -15.3121    3.9915   18.2035 C.3     1  UNL1        0.0437
@<TRIPOS>BOND
     1    12    13    1
     2    13    14   ar
     3    14    15   ar
     4    15    16   ar
     5    16    17   ar
     6    17    10    1
     7    10    11    3
     8    11     1    1
     9     1     2    2
    10     2     3    1
    11     3     4    1
    12     4     5    1
    13     5     6   am
    14     6     7    2
    15     6    19    1
    16    19    20    1
    17    20    21    1
    18    20    22    1
    19    20    23    1
    20     5     8    1
    21     8     9    1
    22    17    18   ar
    23    18    13   ar
    24     9     2    1
@<TRIPOS>MOLECULE
*****
 23 24 0 0 0
SMALL
GASTEIGER

@<TRIPOS>ATOM
      1 C         -11.8002   -3.1528   18.9965 C.2     1  UNL1        0.0412
      2 C         -12.6488   -4.3816   18.8548 C.2     1  UNL1       -0.0326
      3 C         -14.0905   -4.2560   18.4604 C.3     1  UNL1        0.0443
      4 C         -14.9391   -5.4847   18.3187 C.3     1  UNL1        0.1011
      5 N         -14.3459   -6.8391   18.5715 N.am    1  UNL1       -0.2454
      6 C         -15.1945   -8.0678   18.4298 C.2     1  UNL1        0.4047
      7 O         -14.6013   -9.4221   18.6826 O.2     1  UNL1       -0.2262
      8 C         -12.9042   -6.9647   18.9659 C.3     1  UNL1        0.1011
      9 C         -12.0556   -5.7359   19.1076 C.3     1  UNL1        0.0443
     10 C         -12.9865   -0.4441   18.4910 C.1     1  UNL1       -0.0405
     11 C         -12.3934   -1.7984   18.7438 C.1     1  UNL1       -0.0583
     12 C         -12.8356    4.1557   16.0786 C.3     1  UNL1        0.0521
     13 C         -13.5041    3.2102   17.0320 C.ar    1  UNL1        0.0600
     14 C         -14.7658    3.6190   17.7326 C.ar    1  UNL1        0.0148
     15 C         -15.4344    2.6735   18.6861 C.ar    1  UNL1        0.0034
     16 C         -14.8413    1.3192   18.9389 C.ar    1  UNL1        0.0276
     17 C         -13.5796    0.9103   18.2382 C.ar    1  UNL1        0.1224
     18 N         -12.9110    1.8558   17.2848 N.ar    1  UNL1       -0.2414
     19 O         -16.6362   -7.9422   18.0353 O.3     1  UNL1       -0.4418
     20 C         -17.6983   -8.6200   18.8493 C.3     1  UNL1        0.1378
     21 C         -17.5058   -7.6100   19.9415 C.3     1  UNL1        0.0437
     22 C         -17.8907   -9.6300   17.7572 C.3     1  UNL1        0.0437
     23 C         -18.7604   -9.2979   19.6633 C.3     1  UNL1        0.0437
@<TRIPOS>BOND
     1    12    13    1
     2    13    14   ar
     3    14    15   ar
     4    15    16   ar
     5    16    17   ar
     6    17    10    1
     7    10    11    3
     8    11     1    1
     9     1     2    2
    10     2     3    1
    11     3     4    1
    12     4     5    1
    13     5     6   am
    14     6     7    2
    15     6    19    1
    16    19    20    1
    17    20    21    1
    18    20    22    1
    19    20    23    1
    20     5     8    1
    21     8     9    1
    22    17    18   ar
    23    18    13   ar
    24     9     2    1
@<TRIPOS>MOLECULE
*****
 23 24 0 0 0
SMALL
GASTEIGER

@<TRIPOS>ATOM
      1 C           0.9537    4.0865   18.4829 C.2     1  UNL1        0.0412
      2 C           1.7636    2.8244   18.5164 C.2     1  UNL1       -0.0326
      3 C           1.0938    1.5105   18.7902 C.3     1  UNL1        0.0443
      4 C           1.9037    0.2484   18.8238 C.3     1  UNL1        0.1011
      5 N           3.3834    0.3002   18.5835 N.am    1  UNL1       -0.2454
      6 C           4.1933   -0.9619   18.6171 C.2     1  UNL1        0.4047
      7 O           5.6730   -0.9101   18.3768 O.2     1  UNL1       -0.2262
      8 C           4.0532    1.6141   18.3097 C.3     1  UNL1        0.1011
      9 C           3.2433    2.8762   18.2761 C.3     1  UNL1        0.0443
     10 C          -2.0058    3.9829   18.9634 C.1     1  UNL1       -0.0405
     11 C          -0.5261    4.0347   18.7231 C.1     1  UNL1       -0.0583
     12 C          -6.0379    4.0559   22.2401 C.3     1  UNL1        0.0521
     13 C          -5.5016    3.9676   20.8421 C.ar    1  UNL1        0.0600
     14 C          -6.4449    3.8276   19.6843 C.ar    1  UNL1        0.0148
     15 C          -5.9086    3.7393   18.2863 C.ar    1  UNL1        0.0034
     16 C          -4.4289    3.7911   18.0460 C.ar    1  UNL1        0.0276
     17 C          -3.4856    3.9312   19.2037 C.ar    1  UNL1        0.1224
     18 N          -4.0219    4.0194   20.6017 N.ar    1  UNL1       -0.2414
     19 O           3.5235   -2.2758   18.8909 O.3     1  UNL1       -0.4418
     20 C           4.0366   -3.1658   19.9839 C.3     1  UNL1        0.1378
     21 C           3.7182   -2.1058   20.9964 C.3     1  UNL1        0.0437
     22 C           4.3549   -4.2257   18.9715 C.3     1  UNL1        0.0437
     23 C           4.5496   -4.0558   21.0770 C.3     1  UNL1        0.0437
@<TRIPOS>BOND
     1    12    13    1
     2    13    14   ar
     3    14    15   ar
     4    15    16   ar
     5    16    17   ar
     6    17    10    1
     7    10    11    3
     8    11     1    1
     9     1     2    2
    10     2     3    1
    11     3     4    1
    12     4     5    1
    13     5     6   am
    14     6     7    2
    15     6    19    1
    16    19    20    1
    17    20    21    1
    18    20    22    1
    19    20    23    1
    20     5     8    1
    21     8     9    1
    22    17    18   ar
    23    18    13   ar
    24     9     2    1
@<TRIPOS>MOLECULE
*****
 23 24 0 0 0
SMALL
GASTEIGER

@<TRIPOS>ATOM
      1 C           8.0081   -4.7815   22.7001 C.2     1  UNL1        0.0412
      2 C           7.9525   -5.0783   24.1694 C.2     1  UNL1       -0.0326
      3 C           6.8197   -4.5503   24.9988 C.3     1  UNL1        0.0443
      4 C           6.7641   -4.8471   26.4681 C.3     1  UNL1        0.1011
      5 N           7.8414   -5.6719   27.1080 N.am    1  UNL1       -0.2454
      6 C           7.7858   -5.9687   28.5772 C.2     1  UNL1        0.4047
      7 O           8.8630   -6.7934   29.2170 O.2     1  UNL1       -0.2262
      8 C           8.9741   -6.1999   26.2785 C.3     1  UNL1        0.1011
      9 C           9.0297   -5.9030   24.8091 C.3     1  UNL1        0.0443
     10 C           5.8537   -3.1319   21.4204 C.1     1  UNL1       -0.0405
     11 C           6.9308   -3.9567   22.0602 C.1     1  UNL1       -0.0583
     12 C           3.8262   -0.8639   17.2079 C.3     1  UNL1        0.0521
     13 C           3.7627   -1.1731   18.6743 C.ar    1  UNL1        0.0600
     14 C           2.6221   -0.6576   19.5008 C.ar    1  UNL1        0.0148
     15 C           2.5587   -0.9668   20.9672 C.ar    1  UNL1        0.0034
     16 C           3.6359   -1.7916   21.6071 C.ar    1  UNL1        0.0276
     17 C           4.7764   -2.3071   20.7806 C.ar    1  UNL1        0.1224
     18 N           4.8399   -1.9979   19.3141 N.ar    1  UNL1       -0.2414
     19 O           6.6530   -5.4407   29.4067 O.3     1  UNL1       -0.4418
     20 C           6.9361   -4.5759   30.5991 C.3     1  UNL1        0.1378
     21 C           6.9086   -5.7868   31.4839 C.3     1  UNL1        0.0437
     22 C           6.9636   -3.3650   29.7144 C.3     1  UNL1        0.0437
     23 C           7.2192   -3.7110   31.7916 C.3     1  UNL1        0.0437
@<TRIPOS>BOND
     1    12    13    1
     2    13    14   ar
     3    14    15   ar
     4    15    16   ar
     5    16    17   ar
     6    17    10    1
     7    10    11    3
     8    11     1    1
     9     1     2    2
    10     2     3    1
    11     3     4    1
    12     4     5    1
    13     5     6   am
    14     6     7    2
    15     6    19    1
    16    19    20    1
    17    20    21    1
    18    20    22    1
    19    20    23    1
    20     5     8    1
    21     8     9    1
    22    17    18   ar
    23    18    13   ar
    24     9     2    1
@<TRIPOS>MOLECULE
*****
 23 24 0 0 0
SMALL
GASTEIGER

@<TRIPOS>ATOM
      1 C          -0.1568    2.3539   21.9357 C.2     1  UNL1        0.0412
      2 C           0.7873    1.5585   21.0837 C.2     1  UNL1       -0.0326
      3 C           1.8127    0.6725   21.7268 C.3     1  UNL1        0.0443
      4 C           2.7569   -0.1229   20.8748 C.3     1  UNL1        0.1011
      5 N           2.6756   -0.0324   19.3797 N.am    1  UNL1       -0.2454
      6 C           3.6197   -0.8278   18.5278 C.2     1  UNL1        0.4047
      7 O           3.5384   -0.7373   17.0328 O.2     1  UNL1       -0.2262
      8 C           1.6502    0.8536   18.7367 C.3     1  UNL1        0.1011
      9 C           0.7060    1.6490   19.5887 C.3     1  UNL1        0.0443
     10 C           0.0057    2.1729   24.9258 C.1     1  UNL1       -0.0405
     11 C          -0.0756    2.2634   23.4308 C.1     1  UNL1       -0.0583
     12 C          -1.5851    0.0615   29.3993 C.3     1  UNL1        0.0521
     13 C          -0.7085    1.0266   28.6576 C.ar    1  UNL1        0.0600
     14 C           0.2494    1.9012   29.4110 C.ar    1  UNL1        0.0148
     15 C           1.1260    2.8664   28.6693 C.ar    1  UNL1        0.0034
     16 C           1.0448    2.9569   27.1743 C.ar    1  UNL1        0.0276
     17 C           0.0869    2.0823   26.4209 C.ar    1  UNL1        0.1224
     18 N          -0.7897    1.1172   27.1626 N.ar    1  UNL1       -0.2414
     19 O           4.6452   -1.7138   19.1708 O.3     1  UNL1       -0.4418
     20 C           4.6917   -3.1746   18.8334 C.3     1  UNL1        0.1378
     21 C           6.0259   -2.9802   18.1761 C.3     1  UNL1        0.0437
     22 C           3.3576   -3.3689   19.4908 C.3     1  UNL1        0.0437
     23 C           4.7383   -4.6354   18.4960 C.3     1  UNL1        0.0437
@<TRIPOS>BOND
     1    12    13    1
     2    13    14   ar
     3    14    15   ar
     4    15    16   ar
     5    16    17   ar
     6    17    10    1
     7    10    11    3
     8    11     1    1
     9     1     2    2
    10     2     3    1
    11     3     4    1
    12     4     5    1
    13     5     6   am
    14     6     7    2
    15     6    19    1
    16    19    20    1
    17    20    21    1
    18    20    22    1
    19    20    23    1
    20     5     8    1
    21     8     9    1
    22    17    18   ar
    23    18    13   ar
    24     9     2    1
@<TRIPOS>MOLECULE
*****
 23 24 0 0 0
SMALL
GASTEIGER

@<TRIPOS>ATOM
      1 C           7.5401   -4.9841   25.8687 C.2     1  UNL1        0.0412
      2 C           7.3731   -4.4044   27.2420 C.2     1  UNL1       -0.0326
      3 C           6.3758   -3.3090   27.4775 C.3     1  UNL1        0.0443
      4 C           6.2087   -2.7294   28.8508 C.3     1  UNL1        0.1011
      5 N           7.0390   -3.2451   29.9887 N.am    1  UNL1       -0.2454
      6 C           6.8719   -2.6655   31.3621 C.2     1  UNL1        0.4047
      7 O           7.7021   -3.1813   32.4999 O.2     1  UNL1       -0.2262
      8 C           8.0362   -4.3406   29.7532 C.3     1  UNL1        0.1011
      9 C           8.2033   -4.9202   28.3798 C.3     1  UNL1        0.0443
     10 C           5.8797   -3.9526   23.5929 C.1     1  UNL1       -0.0405
     11 C           6.7099   -4.4683   24.7308 C.1     1  UNL1       -0.0583
     12 C           4.0743   -4.4619   18.7472 C.3     1  UNL1        0.0521
     13 C           4.1468   -3.6915   20.0322 C.ar    1  UNL1        0.0600
     14 C           3.3891   -2.4053   20.1793 C.ar    1  UNL1        0.0148
     15 C           3.4616   -1.6349   21.4643 C.ar    1  UNL1        0.0034
     16 C           4.2918   -2.1506   22.6021 C.ar    1  UNL1        0.0276
     17 C           5.0494   -3.4368   22.4550 C.ar    1  UNL1        0.1224
     18 N           4.9769   -4.2072   21.1700 N.ar    1  UNL1       -0.2414
     19 O           5.8746   -1.5701   31.5976 O.3     1  UNL1       -0.4418
     20 C           5.4268   -1.2508   32.9931 C.3     1  UNL1        0.1378
     21 C           4.4994   -2.4294   32.9651 C.3     1  UNL1        0.0437
     22 C           6.3541   -0.0722   33.0211 C.3     1  UNL1        0.0437
     23 C           4.9789   -0.9315   34.3886 C.3     1  UNL1        0.0437
@<TRIPOS>BOND
     1    12    13    1
     2    13    14   ar
     3    14    15   ar
     4    15    16   ar
     5    16    17   ar
     6    17    10    1
     7    10    11    3
     8    11     1    1
     9     1     2    2
    10     2     3    1
    11     3     4    1
    12     4     5    1
    13     5     6   am
    14     6     7    2
    15     6    19    1
    16    19    20    1
    17    20    21    1
    18    20    22    1
    19    20    23    1
    20     5     8    1
    21     8     9    1
    22    17    18   ar
    23    18    13   ar
    24     9     2    1
@<TRIPOS>MOLECULE
*****
 23 24 0 0 0
SMALL
GASTEIGER

@<TRIPOS>ATOM
      1 C           5.9965   -2.1887   26.2312 C.2     1  UNL1        0.0412
      2 C           5.1232   -1.6835   27.3412 C.2     1  UNL1       -0.0326
      3 C           3.7000   -1.3013   27.0611 C.3     1  UNL1        0.0443
      4 C           2.8268   -0.7962   28.1711 C.3     1  UNL1        0.1011
      5 N           3.3767   -0.6731   29.5613 N.am    1  UNL1       -0.2454
      6 C           2.5034   -0.1680   30.6713 C.2     1  UNL1        0.4047
      7 O           3.0534   -0.0450   32.0614 O.2     1  UNL1       -0.2262
      8 C           4.7999   -1.0553   29.8414 C.3     1  UNL1        0.1011
      9 C           5.6732   -1.5605   28.7313 C.3     1  UNL1        0.0443
     10 C           4.8967   -2.4347   23.4509 C.1     1  UNL1       -0.0405
     11 C           5.4466   -2.3117   24.8410 C.1     1  UNL1       -0.0583
     12 C           4.5188   -5.0488   18.9761 C.3     1  UNL1        0.0521
     13 C           4.1578   -3.8648   19.8234 C.ar    1  UNL1        0.0600
     14 C           3.2471   -2.8038   19.2805 C.ar    1  UNL1        0.0148
     15 C           2.8861   -1.6198   20.1277 C.ar    1  UNL1        0.0034
     16 C           3.4360   -1.4967   21.5178 C.ar    1  UNL1        0.0276
     17 C           4.3468   -2.5577   22.0607 C.ar    1  UNL1        0.1224
     18 N           4.7077   -3.7417   21.2135 N.ar    1  UNL1       -0.2414
     19 O           1.0802    0.2142   30.3912 O.3     1  UNL1       -0.4418
     20 C           0.7769    1.4708   29.6304 C.3     1  UNL1        0.1378
     21 C          -0.1930    0.7160   28.7705 C.3     1  UNL1        0.0437
     22 C           1.7469    2.2256   30.4903 C.3     1  UNL1        0.0437
     23 C           0.4736    2.7275   28.8696 C.3     1  UNL1        0.0437
@<TRIPOS>BOND
     1    12    13    1
     2    13    14   ar
     3    14    15   ar
     4    15    16   ar
     5    16    17   ar
     6    17    10    1
     7    10    11    3
     8    11     1    1
     9     1     2    2
    10     2     3    1
    11     3     4    1
    12     4     5    1
    13     5     6   am
    14     6     7    2
    15     6    19    1
    16    19    20    1
    17    20    21    1
    18    20    22    1
    19    20    23    1
    20     5     8    1
    21     8     9    1
    22    17    18   ar
    23    18    13   ar
    24     9     2    1
@<TRIPOS>MOLECULE
*****
 23 24 0 0 0
SMALL
GASTEIGER

@<TRIPOS>ATOM
      1 C         -18.2830   -3.7802   19.8978 C.2     1  UNL1        0.0412
      2 C         -16.8853   -4.2959   19.7235 C.2     1  UNL1       -0.0326
      3 C         -15.7209   -3.3557   19.8246 C.3     1  UNL1        0.0443
      4 C         -14.3232   -3.8714   19.6504 C.3     1  UNL1        0.1011
      5 N         -14.0898   -5.3274   19.3750 N.am    1  UNL1       -0.2454
      6 C         -12.6921   -5.8431   19.2007 C.2     1  UNL1        0.4047
      7 O         -12.4588   -7.2989   18.9254 O.2     1  UNL1       -0.2262
      8 C         -15.2542   -6.2675   19.2739 C.3     1  UNL1        0.1011
      9 C         -16.6520   -5.7518   19.4482 C.3     1  UNL1        0.0443
     10 C         -18.7498   -0.8683   20.4485 C.1     1  UNL1       -0.0405
     11 C         -18.5164   -2.3242   20.1732 C.1     1  UNL1       -0.0583
     12 C         -17.5398    3.4725   23.0357 C.3     1  UNL1        0.0521
     13 C         -18.3782    2.7580   22.0175 C.ar    1  UNL1        0.0600
     14 C         -19.4499    3.4994   21.2747 C.ar    1  UNL1        0.0148
     15 C         -20.2882    2.7850   20.2565 C.ar    1  UNL1        0.0034
     16 C         -20.0549    1.3291   19.9811 C.ar    1  UNL1        0.0276
     17 C         -18.9832    0.5877   20.7239 C.ar    1  UNL1        0.1224
     18 N         -18.1449    1.3021   21.7421 N.ar    1  UNL1       -0.2414
     19 O         -11.5277   -4.9029   19.3019 O.3     1  UNL1       -0.4418
     20 C         -10.4686   -4.9038   18.2398 C.3     1  UNL1        0.1378
     21 C          -9.4922   -5.4933   19.2140 C.3     1  UNL1        0.0437
     22 C         -11.4450   -4.3144   17.2655 C.3     1  UNL1        0.0437
     23 C          -9.4094   -4.9047   17.1776 C.3     1  UNL1        0.0437
@<TRIPOS>BOND
     1    12    13    1
     2    13    14   ar
     3    14    15   ar
     4    15    16   ar
     5    16    17   ar
     6    17    10    1
     7    10    11    3
     8    11     1    1
     9     1     2    2
    10     2     3    1
    11     3     4    1
    12     4     5    1
    13     5     6   am
    14     6     7    2
    15     6    19    1
    16    19    20    1
    17    20    21    1
    18    20    22    1
    19    20    23    1
    20     5     8    1
    21     8     9    1
    22    17    18   ar
    23    18    13   ar
    24     9     2    1
