@<TRIPOS>MOLECULE
*****
 30 31 0 0 0
SMALL
GASTEIGER

@<TRIPOS>ATOM
      1 N          -3.3881  -18.8050   20.8122 N.3     1  UNL1       -0.2712
      2 C          -3.4283  -19.9429   19.8356 C.3     1  UNL1        0.0722
      3 C          -4.7093  -20.6931   20.0504 C.3     1  UNL1        0.0204
      4 C          -5.4608  -20.0190   21.1598 C.3     1  UNL1        0.0370
      5 C          -4.6443  -18.8521   21.6306 C.3     1  UNL1        0.0738
      6 C          -2.2854  -17.7971   20.9467 C.3     1  UNL1        0.0937
      7 C          -2.2289  -16.9034   22.1501 C.3     1  UNL1        0.1082
      8 N          -5.4187  -15.1352   23.7150 N.am    1  UNL1       -0.2921
      9 C          -4.3294  -16.1379   23.4736 C.2     1  UNL1        0.3007
     10 O          -4.2513  -17.3776   24.3145 O.2     1  UNL1       -0.2528
     11 N          -3.3182  -15.9008   22.3915 N.am    1  UNL1       -0.2875
     12 H          -5.4700  -14.3216   23.1632 H       1  UNL1        0.1508
     13 H          -3.3694  -15.0872   21.8396 H       1  UNL1        0.1510
     14 C          -7.4324  -15.8003   23.7668 C.3     1  UNL1        0.0197
     15 C          -6.4299  -15.3723   24.7973 C.3     1  UNL1        0.0583
     16 C          -5.4274  -14.9444   25.8277 C.3     1  UNL1        0.0197
     17 C          -7.4411  -15.6095   25.8795 C.3     1  UNL1        0.0197
     18 C          -6.7947  -20.4382   21.7030 C.3     1  UNL1        0.0911
     19 N          -7.9995  -19.5718   21.4841 N.am    1  UNL1       -0.3008
     20 C          -9.1264  -19.5904   22.4739 C.2     1  UNL1        0.2459
     21 O          -9.0485  -20.4752   23.6826 O.2     1  UNL1       -0.2701
     22 H          -8.0507  -18.9910   20.6908 H       1  UNL1        0.1497
     23 C         -10.3313  -18.7240   22.2550 C.ar    1  UNL1        0.0550
     24 C         -10.3892  -17.8051   21.0709 C.ar    1  UNL1        0.0160
     25 C         -11.5940  -16.9388   20.8521 C.ar    1  UNL1        0.0587
     26 CL        -11.6519  -16.0198   19.6679 Cl      1  UNL1       -0.0822
     27 C         -12.7409  -16.9914   21.8174 C.ar    1  UNL1        0.0228
     28 C         -12.6830  -17.9104   23.0015 C.ar    1  UNL1        0.0587
     29 CL        -13.8300  -17.9630   23.9668 Cl      1  UNL1       -0.0822
     30 C         -11.4782  -18.7766   23.2203 C.ar    1  UNL1        0.0160
@<TRIPOS>BOND
     1    14    15    1
     2    15    16    1
     3    15    17    1
     4    15     8    1
     5     8     9   am
     6     9    10    2
     7     9    11   am
     8    11     7    1
     9     7     6    1
    10     6     1    1
    11     1     2    1
    12     2     3    1
    13     3     4    1
    14     4    18    1
    15    18    19    1
    16    19    20   am
    17    20    21    2
    18    20    23    1
    19    23    24   ar
    20    24    25   ar
    21    25    26    1
    22    25    27   ar
    23    27    28   ar
    24    28    29    1
    25    28    30   ar
    26     4     5    1
    27     5     1    1
    28    30    23   ar
    29     8    12    1
    30    11    13    1
    31    19    22    1
@<TRIPOS>MOLECULE
*****
 30 31 0 0 0
SMALL
GASTEIGER

@<TRIPOS>ATOM
      1 N          -2.8255  -18.1615   20.3948 N.3     1  UNL1       -0.2712
      2 C          -2.4701  -19.0422   19.2336 C.3     1  UNL1        0.0722
      3 C          -3.5079  -20.1206   19.1350 C.3     1  UNL1        0.0204
      4 C          -4.5048  -19.9066   20.2352 C.3     1  UNL1        0.0370
      5 C          -4.0831  -18.6958   21.0137 C.3     1  UNL1        0.0738
      6 C          -2.0582  -16.9580   20.8559 C.3     1  UNL1        0.0937
      7 C          -2.2843  -16.4065   22.2324 C.3     1  UNL1        0.1082
      8 N          -5.6984  -14.9875   23.6750 N.am    1  UNL1       -0.2921
      9 C          -4.5425  -15.9080   23.4164 C.2     1  UNL1        0.3007
     10 O          -4.4892  -17.2506   24.0832 O.2     1  UNL1       -0.2528
     11 N          -3.4401  -15.4860   22.4910 N.am    1  UNL1       -0.2875
     12 H          -5.7334  -14.1064   23.2373 H       1  UNL1        0.1508
     13 H          -3.4751  -14.6049   22.0533 H       1  UNL1        0.1510
     14 C          -7.6731  -15.7192   23.4201 C.3     1  UNL1        0.0197
     15 C          -6.8008  -15.4096   24.6004 C.3     1  UNL1        0.0583
     16 C          -5.9285  -15.1000   25.7808 C.3     1  UNL1        0.0197
     17 C          -7.9033  -15.8317   25.5259 C.3     1  UNL1        0.0197
     18 C          -5.7116  -20.7544   20.5087 C.3     1  UNL1        0.0911
     19 N          -6.8190  -20.2266   21.3719 N.am    1  UNL1       -0.3008
     20 C          -7.9454  -19.4510   20.7558 C.2     1  UNL1        0.2459
     21 O          -7.9644  -19.2032   19.2765 O.2     1  UNL1       -0.2701
     22 H          -6.8066  -20.3893   22.3428 H       1  UNL1        0.1497
     23 C          -9.0529  -18.9232   21.6189 C.ar    1  UNL1        0.0550
     24 C          -8.9962  -19.1057   23.1067 C.ar    1  UNL1        0.0160
     25 C         -10.1037  -18.5779   23.9697 C.ar    1  UNL1        0.0587
     26 CL        -10.0470  -18.7604   25.4576 Cl      1  UNL1       -0.0822
     27 C         -11.2678  -17.8676   23.3451 C.ar    1  UNL1        0.0228
     28 C         -11.3245  -17.6851   21.8573 C.ar    1  UNL1        0.0587
     29 CL        -12.4886  -16.9747   21.2326 Cl      1  UNL1       -0.0822
     30 C         -10.2171  -18.2129   20.9942 C.ar    1  UNL1        0.0160
@<TRIPOS>BOND
     1    14    15    1
     2    15    16    1
     3    15    17    1
     4    15     8    1
     5     8     9   am
     6     9    10    2
     7     9    11   am
     8    11     7    1
     9     7     6    1
    10     6     1    1
    11     1     2    1
    12     2     3    1
    13     3     4    1
    14     4    18    1
    15    18    19    1
    16    19    20   am
    17    20    21    2
    18    20    23    1
    19    23    24   ar
    20    24    25   ar
    21    25    26    1
    22    25    27   ar
    23    27    28   ar
    24    28    29    1
    25    28    30   ar
    26     4     5    1
    27     5     1    1
    28    30    23   ar
    29     8    12    1
    30    11    13    1
    31    19    22    1
@<TRIPOS>MOLECULE
*****
 30 31 0 0 0
SMALL
GASTEIGER

@<TRIPOS>ATOM
      1 N          -3.4958  -18.4069   22.2430 N.3     1  UNL1       -0.2712
      2 C          -2.6851  -17.1478   22.3315 C.3     1  UNL1        0.0722
      3 C          -3.5046  -16.1186   23.0520 C.3     1  UNL1        0.0204
      4 C          -4.8217  -16.7414   23.4088 C.3     1  UNL1        0.0370
      5 C          -4.8162  -18.1556   22.9088 C.3     1  UNL1        0.0738
      6 C          -3.0621  -19.6914   21.6013 C.3     1  UNL1        0.0937
      7 C          -3.6513  -20.1094   20.2867 C.3     1  UNL1        0.1082
      8 N          -7.5651  -20.6924   19.9828 N.am    1  UNL1       -0.2921
      9 C          -6.2336  -20.0026   20.0226 C.2     1  UNL1        0.3007
     10 O          -6.1532  -18.5162   19.8380 O.2     1  UNL1       -0.2528
     11 N          -4.9827  -20.7992   20.2469 N.am    1  UNL1       -0.2875
     12 H          -7.6179  -21.6680   20.1040 H       1  UNL1        0.1508
     13 H          -5.0354  -21.7748   20.3681 H       1  UNL1        0.1510
     14 C          -8.8527  -20.3552   18.3311 C.3     1  UNL1        0.0197
     15 C          -8.8161  -19.8957   19.7585 C.3     1  UNL1        0.0583
     16 C          -8.7795  -19.4363   21.1859 C.3     1  UNL1        0.0197
     17 C         -10.0671  -19.0991   19.5341 C.3     1  UNL1        0.0197
     18 C          -5.9466  -16.0683   24.1376 C.3     1  UNL1        0.0911
     19 N          -7.3632  -16.4933   23.8872 N.am    1  UNL1       -0.3008
     20 C          -8.1419  -15.8814   22.7606 C.2     1  UNL1        0.2459
     21 O          -7.5039  -14.8445   21.8843 O.2     1  UNL1       -0.2701
     22 H          -7.7820  -17.1739   24.4624 H       1  UNL1        0.1497
     23 C          -9.5585  -16.3065   22.5102 C.ar    1  UNL1        0.0550
     24 C         -10.2762  -17.1547   23.5178 C.ar    1  UNL1        0.0160
     25 C         -11.6928  -17.5797   23.2674 C.ar    1  UNL1        0.0587
     26 CL        -12.4106  -18.4280   24.2750 Cl      1  UNL1       -0.0822
     27 C         -12.3915  -17.1565   22.0093 C.ar    1  UNL1        0.0228
     28 C         -11.6738  -16.3082   21.0017 C.ar    1  UNL1        0.0587
     29 CL        -12.3725  -15.8850   19.7437 Cl      1  UNL1       -0.0822
     30 C         -10.2572  -15.8833   21.2522 C.ar    1  UNL1        0.0160
@<TRIPOS>BOND
     1    14    15    1
     2    15    16    1
     3    15    17    1
     4    15     8    1
     5     8     9   am
     6     9    10    2
     7     9    11   am
     8    11     7    1
     9     7     6    1
    10     6     1    1
    11     1     2    1
    12     2     3    1
    13     3     4    1
    14     4    18    1
    15    18    19    1
    16    19    20   am
    17    20    21    2
    18    20    23    1
    19    23    24   ar
    20    24    25   ar
    21    25    26    1
    22    25    27   ar
    23    27    28   ar
    24    28    29    1
    25    28    30   ar
    26     4     5    1
    27     5     1    1
    28    30    23   ar
    29     8    12    1
    30    11    13    1
    31    19    22    1
@<TRIPOS>MOLECULE
*****
 30 31 0 0 0
SMALL
GASTEIGER

@<TRIPOS>ATOM
      1 N          -8.7280  -16.8901   25.2961 N.3     1  UNL1       -0.2712
      2 C          -8.4407  -16.2752   26.6338 C.3     1  UNL1        0.0722
      3 C          -7.1275  -15.5562   26.5410 C.3     1  UNL1        0.0204
      4 C          -6.6033  -15.7266   25.1459 C.3     1  UNL1        0.0370
      5 C          -7.5925  -16.5510   24.3766 C.3     1  UNL1        0.0738
      6 C          -9.9384  -17.7016   24.9404 C.3     1  UNL1        0.0937
      7 C         -10.7732  -17.3224   23.7533 C.3     1  UNL1        0.1082
      8 N          -9.2325  -18.2993   20.2287 N.am    1  UNL1       -0.2921
      9 C          -9.8668  -18.4247   21.5823 C.2     1  UNL1        0.3007
     10 O         -10.2289  -19.7781   22.1183 O.2     1  UNL1       -0.2528
     11 N         -10.1389  -17.1969   22.3998 N.am    1  UNL1       -0.2875
     12 H          -8.9948  -17.4110   19.8769 H       1  UNL1        0.1508
     13 H          -9.9013  -16.3087   22.0480 H       1  UNL1        0.1510
     14 C         -10.3873  -19.5357   18.9491 C.3     1  UNL1        0.0197
     15 C          -8.9604  -19.5271   19.4113 C.3     1  UNL1        0.0583
     16 C          -7.5334  -19.5186   19.8734 C.3     1  UNL1        0.0197
     17 C          -8.6882  -20.7550   18.5938 C.3     1  UNL1        0.0197
     18 C          -5.3160  -15.1703   24.6137 C.3     1  UNL1        0.0911
     19 N          -4.6743  -15.7878   23.4067 N.am    1  UNL1       -0.3008
     20 C          -3.9783  -17.1115   23.5219 C.2     1  UNL1        0.2459
     21 O          -3.9240  -17.8178   24.8441 O.2     1  UNL1       -0.2701
     22 H          -4.7099  -15.3242   22.5389 H       1  UNL1        0.1497
     23 C          -3.3365  -17.7290   22.3148 C.ar    1  UNL1        0.0550
     24 C          -2.0563  -17.1642   21.7745 C.ar    1  UNL1        0.0160
     25 C          -1.4146  -17.7817   20.5675 C.ar    1  UNL1        0.0587
     26 CL         -0.1343  -17.2169   20.0271 Cl      1  UNL1       -0.0822
     27 C          -2.0531  -18.9640   19.9009 C.ar    1  UNL1        0.0228
     28 C          -3.3333  -19.5288   20.4412 C.ar    1  UNL1        0.0587
     29 CL         -3.9718  -20.7112   19.7746 Cl      1  UNL1       -0.0822
     30 C          -3.9750  -18.9113   21.6482 C.ar    1  UNL1        0.0160
@<TRIPOS>BOND
     1    14    15    1
     2    15    16    1
     3    15    17    1
     4    15     8    1
     5     8     9   am
     6     9    10    2
     7     9    11   am
     8    11     7    1
     9     7     6    1
    10     6     1    1
    11     1     2    1
    12     2     3    1
    13     3     4    1
    14     4    18    1
    15    18    19    1
    16    19    20   am
    17    20    21    2
    18    20    23    1
    19    23    24   ar
    20    24    25   ar
    21    25    26    1
    22    25    27   ar
    23    27    28   ar
    24    28    29    1
    25    28    30   ar
    26     4     5    1
    27     5     1    1
    28    30    23   ar
    29     8    12    1
    30    11    13    1
    31    19    22    1
@<TRIPOS>MOLECULE
*****
 30 31 0 0 0
SMALL
GASTEIGER

@<TRIPOS>ATOM
      1 N          -8.5535  -16.8885   26.0802 N.3     1  UNL1       -0.2712
      2 C          -8.1325  -16.1665   27.3259 C.3     1  UNL1        0.0722
      3 C          -6.8669  -15.4202   27.0238 C.3     1  UNL1        0.0204
      4 C          -6.5056  -15.6810   25.5915 C.3     1  UNL1        0.0370
      5 C          -7.5480  -16.5885   25.0084 C.3     1  UNL1        0.0738
      6 C          -9.7668  -17.7580   25.9325 C.3     1  UNL1        0.0937
      7 C          -9.7538  -18.9059   24.9671 C.3     1  UNL1        0.1082
      8 N         -11.7718  -18.0909   21.6484 N.am    1  UNL1       -0.2921
      9 C         -10.7414  -18.0138   22.7359 C.2     1  UNL1        0.3007
     10 O          -9.6683  -16.9672   22.6794 O.2     1  UNL1       -0.2528
     11 N         -10.7841  -18.9831   23.8797 N.am    1  UNL1       -0.2875
     12 H         -12.4760  -18.7778   21.6854 H       1  UNL1        0.1508
     13 H         -11.4884  -19.6700   23.9168 H       1  UNL1        0.1510
     14 C         -12.5326  -16.1406   21.3058 C.3     1  UNL1        0.0197
     15 C         -11.7290  -17.1215   20.5045 C.3     1  UNL1        0.0583
     16 C         -10.9254  -18.1024   19.7033 C.3     1  UNL1        0.0197
     17 C         -11.6862  -16.1521   19.3607 C.3     1  UNL1        0.0197
     18 C          -5.3116  -15.1309   24.8692 C.3     1  UNL1        0.0911
     19 N          -4.8069  -15.8086   23.6298 N.am    1  UNL1       -0.3008
     20 C          -4.0783  -17.1156   23.7334 C.2     1  UNL1        0.2459
     21 O          -3.8544  -17.7450   25.0765 O.2     1  UNL1       -0.2701
     22 H          -4.9539  -15.3955   22.7483 H       1  UNL1        0.1497
     23 C          -3.5736  -17.7933   22.4940 C.ar    1  UNL1        0.0550
     24 C          -4.3439  -18.9329   21.8958 C.ar    1  UNL1        0.0160
     25 C          -3.8392  -19.6106   20.6565 C.ar    1  UNL1        0.0587
     26 CL         -4.6094  -20.7503   20.0582 Cl      1  UNL1       -0.0822
     27 C          -2.5642  -19.1486   20.0154 C.ar    1  UNL1        0.0228
     28 C          -1.7939  -18.0090   20.6136 C.ar    1  UNL1        0.0587
     29 CL         -0.5189  -17.5471   19.9725 Cl      1  UNL1       -0.0822
     30 C          -2.2986  -17.3314   21.8529 C.ar    1  UNL1        0.0160
@<TRIPOS>BOND
     1    14    15    1
     2    15    16    1
     3    15    17    1
     4    15     8    1
     5     8     9   am
     6     9    10    2
     7     9    11   am
     8    11     7    1
     9     7     6    1
    10     6     1    1
    11     1     2    1
    12     2     3    1
    13     3     4    1
    14     4    18    1
    15    18    19    1
    16    19    20   am
    17    20    21    2
    18    20    23    1
    19    23    24   ar
    20    24    25   ar
    21    25    26    1
    22    25    27   ar
    23    27    28   ar
    24    28    29    1
    25    28    30   ar
    26     4     5    1
    27     5     1    1
    28    30    23   ar
    29     8    12    1
    30    11    13    1
    31    19    22    1
@<TRIPOS>MOLECULE
*****
 30 31 0 0 0
SMALL
GASTEIGER

@<TRIPOS>ATOM
      1 N           8.5813   -7.5213   26.5448 N.3     1  UNL1       -0.2712
      2 C           8.7138   -7.7515   25.0684 C.3     1  UNL1        0.0722
      3 C           8.0800   -6.5914   24.3597 C.3     1  UNL1        0.0204
      4 C           7.5558   -5.6442   25.3979 C.3     1  UNL1        0.0370
      5 C           7.8657   -6.2189   26.7484 C.3     1  UNL1        0.0738
      6 C           9.0774   -8.4334   27.6274 C.3     1  UNL1        0.0937
      7 C           8.4395   -9.7762   27.8275 C.3     1  UNL1        0.1082
      8 N           4.8437  -11.4430   27.6225 N.am    1  UNL1       -0.2921
      9 C           6.3089  -11.2616   27.8880 C.2     1  UNL1        0.3007
     10 O           7.1086  -12.3845   28.4794 O.2     1  UNL1       -0.2528
     11 N           6.9744   -9.9575   27.5621 N.am    1  UNL1       -0.2875
     12 H           4.3188  -10.7060   27.2344 H       1  UNL1        0.1508
     13 H           6.4496   -9.2205   27.1739 H       1  UNL1        0.1510
     14 C           3.8451  -12.2348   29.3183 C.3     1  UNL1        0.0197
     15 C           4.1782  -12.7472   27.9485 C.3     1  UNL1        0.0583
     16 C           4.5113  -13.2595   26.5786 C.3     1  UNL1        0.0197
     17 C           3.5128  -14.0513   28.2744 C.3     1  UNL1        0.0197
     18 C           6.8464   -4.3495   25.1323 C.3     1  UNL1        0.0911
     19 N           6.1619   -4.1256   23.8165 N.am    1  UNL1       -0.3008
     20 C           5.1796   -3.0023   23.6637 C.2     1  UNL1        0.2459
     21 O           4.8818   -2.1030   24.8266 O.2     1  UNL1       -0.2701
     22 H           6.3574   -4.7158   23.0532 H       1  UNL1        0.1497
     23 C           4.4951   -2.7784   22.3478 C.ar    1  UNL1        0.0550
     24 C           3.5744   -1.6075   22.1711 C.ar    1  UNL1        0.0160
     25 C           2.8900   -1.3836   20.8553 C.ar    1  UNL1        0.0587
     26 CL          1.9692   -0.2126   20.6785 Cl      1  UNL1       -0.0822
     27 C           3.1262   -2.3305   19.7163 C.ar    1  UNL1        0.0228
     28 C           4.0469   -3.5014   19.8930 C.ar    1  UNL1        0.0587
     29 CL          4.2832   -4.4484   18.7540 Cl      1  UNL1       -0.0822
     30 C           4.7314   -3.7253   21.2088 C.ar    1  UNL1        0.0160
@<TRIPOS>BOND
     1    14    15    1
     2    15    16    1
     3    15    17    1
     4    15     8    1
     5     8     9   am
     6     9    10    2
     7     9    11   am
     8    11     7    1
     9     7     6    1
    10     6     1    1
    11     1     2    1
    12     2     3    1
    13     3     4    1
    14     4    18    1
    15    18    19    1
    16    19    20   am
    17    20    21    2
    18    20    23    1
    19    23    24   ar
    20    24    25   ar
    21    25    26    1
    22    25    27   ar
    23    27    28   ar
    24    28    29    1
    25    28    30   ar
    26     4     5    1
    27     5     1    1
    28    30    23   ar
    29     8    12    1
    30    11    13    1
    31    19    22    1
@<TRIPOS>MOLECULE
*****
 30 31 0 0 0
SMALL
GASTEIGER

@<TRIPOS>ATOM
      1 N          -8.8972  -16.2115   24.7724 N.3     1  UNL1       -0.2712
      2 C          -8.9022  -15.5914   26.1383 C.3     1  UNL1        0.0722
      3 C          -7.4789  -15.3334   26.5354 C.3     1  UNL1        0.0204
      4 C          -6.5943  -15.7940   25.4151 C.3     1  UNL1        0.0370
      5 C          -7.4708  -16.3367   24.3255 C.3     1  UNL1        0.0738
      6 C         -10.1063  -16.6324   23.9909 C.3     1  UNL1        0.0937
      7 C         -10.1682  -16.3829   22.5131 C.3     1  UNL1        0.1082
      8 N          -7.5225  -18.5057   20.4530 N.am    1  UNL1       -0.2921
      9 C          -8.6959  -18.1613   21.3217 C.2     1  UNL1        0.3007
     10 O          -9.5705  -19.2509   21.8676 O.2     1  UNL1       -0.2528
     11 N          -8.9949  -16.7273   21.6445 N.am    1  UNL1       -0.2875
     12 H          -6.9485  -17.7906   20.0948 H       1  UNL1        0.1508
     13 H          -8.4209  -16.0121   21.2862 H       1  UNL1        0.1510
     14 C          -7.9384  -19.7938   18.8197 C.3     1  UNL1        0.0197
     15 C          -7.2236  -19.9398   20.1303 C.3     1  UNL1        0.0583
     16 C          -6.5088  -20.0858   21.4409 C.3     1  UNL1        0.0197
     17 C          -6.9248  -21.3738   19.8076 C.3     1  UNL1        0.0197
     18 C          -5.0961  -15.7242   25.3889 C.3     1  UNL1        0.0911
     19 N          -4.3214  -16.5906   24.4406 N.am    1  UNL1       -0.3008
     20 C          -3.9247  -16.0610   23.0944 C.2     1  UNL1        0.2459
     21 O          -4.3028  -14.6650   22.6965 O.2     1  UNL1       -0.2701
     22 H          -4.0733  -17.5068   24.7017 H       1  UNL1        0.1497
     23 C          -3.1500  -16.9274   22.1461 C.ar    1  UNL1        0.0550
     24 C          -3.6554  -18.2958   21.7971 C.ar    1  UNL1        0.0160
     25 C          -2.8807  -19.1621   20.8488 C.ar    1  UNL1        0.0587
     26 CL         -3.3861  -20.5306   20.4997 Cl      1  UNL1       -0.0822
     27 C          -1.6005  -18.6600   20.2496 C.ar    1  UNL1        0.0228
     28 C          -1.0951  -17.2915   20.5987 C.ar    1  UNL1        0.0587
     29 CL          0.1851  -16.7894   19.9995 Cl      1  UNL1       -0.0822
     30 C          -1.8698  -16.4252   21.5469 C.ar    1  UNL1        0.0160
@<TRIPOS>BOND
     1    14    15    1
     2    15    16    1
     3    15    17    1
     4    15     8    1
     5     8     9   am
     6     9    10    2
     7     9    11   am
     8    11     7    1
     9     7     6    1
    10     6     1    1
    11     1     2    1
    12     2     3    1
    13     3     4    1
    14     4    18    1
    15    18    19    1
    16    19    20   am
    17    20    21    2
    18    20    23    1
    19    23    24   ar
    20    24    25   ar
    21    25    26    1
    22    25    27   ar
    23    27    28   ar
    24    28    29    1
    25    28    30   ar
    26     4     5    1
    27     5     1    1
    28    30    23   ar
    29     8    12    1
    30    11    13    1
    31    19    22    1
@<TRIPOS>MOLECULE
*****
 30 31 0 0 0
SMALL
GASTEIGER

@<TRIPOS>ATOM
      1 N           8.4265   -7.5371   27.2935 N.3     1  UNL1       -0.2712
      2 C           7.7041   -6.4910   28.0897 C.3     1  UNL1        0.0722
      3 C           7.1332   -5.4899   27.1296 C.3     1  UNL1        0.0204
      4 C           7.5026   -5.9173   25.7400 C.3     1  UNL1        0.0370
      5 C           8.3019   -7.1825   25.8414 C.3     1  UNL1        0.0738
      6 C           9.1468   -8.7286   27.8515 C.3     1  UNL1        0.0937
      7 C           8.4362  -10.0436   27.9772 C.3     1  UNL1        0.1082
      8 N           4.7653  -11.4980   27.5779 N.am    1  UNL1       -0.2921
      9 C           6.2146  -11.3902   27.9497 C.2     1  UNL1        0.3007
     10 O           6.8914  -12.5213   28.6656 O.2     1  UNL1       -0.2528
     11 N           6.9870  -10.1514   27.6055 N.am    1  UNL1       -0.2875
     12 H           4.3211  -10.7557   27.1081 H       1  UNL1        0.1508
     13 H           6.5428   -9.4090   27.1356 H       1  UNL1        0.1510
     14 C           3.6888  -12.1708   29.2775 C.3     1  UNL1        0.0197
     15 C           3.9929  -12.7370   27.9221 C.3     1  UNL1        0.0583
     16 C           4.2970  -13.3031   26.5668 C.3     1  UNL1        0.0197
     17 C           3.2205  -13.9759   28.2663 C.3     1  UNL1        0.0197
     18 C           7.1370   -5.2045   24.4719 C.3     1  UNL1        0.0911
     19 N           6.1743   -4.0548   24.5085 N.am    1  UNL1       -0.3008
     20 C           5.5044   -3.5970   23.2469 C.2     1  UNL1        0.2459
     21 O           5.7973   -4.2889   21.9486 O.2     1  UNL1       -0.2701
     22 H           5.9820   -3.6006   25.3606 H       1  UNL1        0.1497
     23 C           4.5417   -2.4472   23.2835 C.ar    1  UNL1        0.0550
     24 C           4.3194   -1.6956   24.5624 C.ar    1  UNL1        0.0160
     25 C           3.3567   -0.5459   24.5990 C.ar    1  UNL1        0.0587
     26 CL          3.1344    0.2058   25.8779 Cl      1  UNL1       -0.0822
     27 C           2.6163   -0.1478   23.3567 C.ar    1  UNL1        0.0228
     28 C           2.8386   -0.8994   22.0778 C.ar    1  UNL1        0.0587
     29 CL          2.0982   -0.5013   20.8354 Cl      1  UNL1       -0.0822
     30 C           3.8013   -2.0491   22.0412 C.ar    1  UNL1        0.0160
@<TRIPOS>BOND
     1    14    15    1
     2    15    16    1
     3    15    17    1
     4    15     8    1
     5     8     9   am
     6     9    10    2
     7     9    11   am
     8    11     7    1
     9     7     6    1
    10     6     1    1
    11     1     2    1
    12     2     3    1
    13     3     4    1
    14     4    18    1
    15    18    19    1
    16    19    20   am
    17    20    21    2
    18    20    23    1
    19    23    24   ar
    20    24    25   ar
    21    25    26    1
    22    25    27   ar
    23    27    28   ar
    24    28    29    1
    25    28    30   ar
    26     4     5    1
    27     5     1    1
    28    30    23   ar
    29     8    12    1
    30    11    13    1
    31    19    22    1
@<TRIPOS>MOLECULE
*****
 30 31 0 0 0
SMALL
GASTEIGER

@<TRIPOS>ATOM
      1 N           8.3167   -7.0474   27.0454 N.3     1  UNL1       -0.2712
      2 C           7.3687   -6.0960   27.7133 C.3     1  UNL1        0.0722
      3 C           6.8469   -5.1529   26.6701 C.3     1  UNL1        0.0204
      4 C           7.4723   -5.5214   25.3575 C.3     1  UNL1        0.0370
      5 C           8.3808   -6.6923   25.5895 C.3     1  UNL1        0.0738
      6 C           9.0687   -8.1588   27.7158 C.3     1  UNL1        0.0937
      7 C           8.4955   -9.5448   27.7390 C.3     1  UNL1        0.1082
      8 N           4.9322  -11.2848   27.5794 N.am    1  UNL1       -0.2921
      9 C           6.3976  -11.0750   27.8219 C.2     1  UNL1        0.3007
     10 O           7.2303  -12.1858   28.3900 O.2     1  UNL1       -0.2528
     11 N           7.0302   -9.7545   27.4965 N.am    1  UNL1       -0.2875
     12 H           4.3856  -10.5557   27.2066 H       1  UNL1        0.1508
     13 H           6.4837   -9.0254   27.1237 H       1  UNL1        0.1510
     14 C           3.9898  -12.1159   29.2885 C.3     1  UNL1        0.0197
     15 C           4.2996  -12.6054   27.9049 C.3     1  UNL1        0.0583
     16 C           4.6095  -13.0948   26.5213 C.3     1  UNL1        0.0197
     17 C           3.6671  -13.9259   28.2304 C.3     1  UNL1        0.0197
     18 C           7.2316   -4.8389   24.0437 C.3     1  UNL1        0.0911
     19 N           6.2101   -3.7451   23.9428 N.am    1  UNL1       -0.3008
     20 C           5.4755   -3.5215   22.6543 C.2     1  UNL1        0.2459
     21 O           5.7623   -4.3918   21.4666 O.2     1  UNL1       -0.2701
     22 H           6.0218   -3.1739   24.7222 H       1  UNL1        0.1497
     23 C           4.4539   -2.4277   22.5533 C.ar    1  UNL1        0.0550
     24 C           3.8372   -2.0976   21.2265 C.ar    1  UNL1        0.0160
     25 C           2.8157   -1.0039   21.1256 C.ar    1  UNL1        0.0587
     26 CL          2.1989   -0.6737   19.7987 Cl      1  UNL1       -0.0822
     27 C           2.4110   -0.2402   22.3516 C.ar    1  UNL1        0.0228
     28 C           3.0277   -0.5703   23.6784 C.ar    1  UNL1        0.0587
     29 CL          2.6230    0.1934   24.9044 Cl      1  UNL1       -0.0822
     30 C           4.0492   -1.6641   23.7793 C.ar    1  UNL1        0.0160
@<TRIPOS>BOND
     1    14    15    1
     2    15    16    1
     3    15    17    1
     4    15     8    1
     5     8     9   am
     6     9    10    2
     7     9    11   am
     8    11     7    1
     9     7     6    1
    10     6     1    1
    11     1     2    1
    12     2     3    1
    13     3     4    1
    14     4    18    1
    15    18    19    1
    16    19    20   am
    17    20    21    2
    18    20    23    1
    19    23    24   ar
    20    24    25   ar
    21    25    26    1
    22    25    27   ar
    23    27    28   ar
    24    28    29    1
    25    28    30   ar
    26     4     5    1
    27     5     1    1
    28    30    23   ar
    29     8    12    1
    30    11    13    1
    31    19    22    1
