@<TRIPOS>MOLECULE
*****
 37 41 0 0 0
SMALL
GASTEIGER

@<TRIPOS>ATOM
      1 C          -8.9139  -17.4503   23.2704 C.3     1  UNL1        0.0419
      2 C         -10.0836  -16.5155   23.1799 C.3     1  UNL1        0.0741
      3 C         -10.0660  -16.4538   23.0366 C.3     1  UNL1        0.0904
      4 C         -11.4849  -16.8623   22.7724 C.3     1  UNL1        0.0386
      5 C         -12.1131  -16.5735   21.4412 C.3     1  UNL1        0.0594
      6 C         -12.3163  -16.1017   20.0320 C.3     1  UNL1        0.0174
      7 C         -11.0405  -15.4633   19.5684 C.3     1  UNL1        0.0174
      8 C         -10.0488  -15.5406   20.6912 C.3     1  UNL1        0.0594
      9 C          -9.2752  -15.7566   21.9695 C.3     1  UNL1        0.0386
     10 N         -10.7117  -16.2268   21.8487 N.3     1  UNL1       -0.2750
     11 C          -7.8383  -14.6083   24.5470 C.3     1  UNL1        0.0738
     12 C          -8.4139  -15.8942   25.0621 C.ar    1  UNL1        0.1433
     13 N          -8.0665  -16.5576   26.3618 N.ar    1  UNL1       -0.1337
     14 N          -8.8758  -17.8158   26.4707 N.ar    1  UNL1       -0.1337
     15 C          -9.7233  -17.9301   25.2385 C.ar    1  UNL1        0.1425
     16 N          -9.4378  -16.7425   24.3678 N.ar    1  UNL1       -0.3039
     17 C         -10.6870  -19.0376   24.9308 C.3     1  UNL1        0.0588
     18 C         -10.1815  -20.4330   24.7134 C.3     1  UNL1        0.0080
     19 C         -12.1564  -18.7497   24.8404 C.3     1  UNL1        0.0080
     20 C          -8.3790  -18.1043   22.0311 C.3     1  UNL1        0.1014
     21 C          -9.2817  -18.9445   21.1771 C.ar    1  UNL1        0.0251
     22 C         -10.4055  -19.8090   21.6667 C.ar    1  UNL1        0.0043
     23 C         -11.0373  -20.4665   20.4757 C.ar    1  UNL1        0.0072
     24 C         -10.3040  -20.0083   19.2500 C.ar    1  UNL1        0.0352
     25 S          -9.2189  -19.0677   19.6834 S.2     1  UNL1       -0.0892
     26 N          -6.9413  -17.9182   21.6456 N.am    1  UNL1       -0.3017
     27 C          -6.0024  -19.0879   21.6643 C.2     1  UNL1        0.2222
     28 O          -6.5010  -20.4436   22.0686 O.2     1  UNL1       -0.2751
     29 H          -6.6140  -17.0285   21.3802 H       1  UNL1        0.1497
     30 C          -4.5648  -18.9017   21.2788 C.3     1  UNL1        0.0769
     31 C          -4.1538  -19.0115   19.8404 C.3     1  UNL1        0.0147
     32 C          -2.7161  -18.8254   19.4549 C.3     1  UNL1        0.0671
     33 C          -1.6896  -18.5295   20.5078 C.3     1  UNL1        0.2640
     34 F          -0.3598  -18.2364   21.1371 F       1  UNL1       -0.2043
     35 F          -0.8167  -18.5375   19.2879 F       1  UNL1       -0.2043
     36 C          -2.1006  -18.4198   21.9463 C.3     1  UNL1        0.0671
     37 C          -3.5382  -18.6059   22.3317 C.3     1  UNL1        0.0147
@<TRIPOS>BOND
     1    11    12    1
     2    12    13   ar
     3    13    14   ar
     4    14    15   ar
     5    15    17    1
     6    17    18    1
     7    17    19    1
     8    15    16   ar
     9     3    16    1
    10     3     4    1
    11     5     4    1
    12     5     6    1
    13     6     7    1
    14     8     7    1
    15     8     9    1
    16     8    10    1
    17    10     2    1
    18     2     1    1
    19    20     1    1
    20    20    26    1
    21    26    27   am
    22    27    28    2
    23    27    30    1
    24    30    31    1
    25    31    32    1
    26    32    33    1
    27    33    34    1
    28    33    35    1
    29    33    36    1
    30    36    37    1
    31    20    21    1
    32    21    22   ar
    33    22    23   ar
    34    23    24   ar
    35    24    25   ar
    36    16    12   ar
    37     9     3    1
    38    37    30    1
    39    25    21   ar
    40    10     5    1
    41    26    29    1
@<TRIPOS>MOLECULE
*****
 37 41 0 0 0
SMALL
GASTEIGER

@<TRIPOS>ATOM
      1 C          -8.3857  -17.1845   23.7671 C.3     1  UNL1        0.0419
      2 C          -9.6714  -16.4168   23.8552 C.3     1  UNL1        0.0741
      3 C          -9.7566  -16.5331   23.9175 C.3     1  UNL1        0.0904
      4 C         -10.8649  -16.1057   23.0015 C.3     1  UNL1        0.0386
      5 C         -12.1750  -16.8361   23.0178 C.3     1  UNL1        0.0594
      6 C         -13.2592  -17.8134   23.3631 C.3     1  UNL1        0.0174
      7 C         -12.7358  -18.7284   24.4302 C.3     1  UNL1        0.0174
      8 C         -11.3281  -18.3167   24.7444 C.3     1  UNL1        0.0594
      9 C          -9.9584  -17.6907   24.8498 C.3     1  UNL1        0.0386
     10 N         -10.9815  -17.1471   23.8715 N.3     1  UNL1       -0.2750
     11 C          -8.3403  -15.1924   21.3009 C.3     1  UNL1        0.0738
     12 C          -7.7954  -15.1865   22.6985 C.ar    1  UNL1        0.1433
     13 N          -6.5039  -14.5634   23.1387 N.ar    1  UNL1       -0.1337
     14 N          -6.3568  -14.7946   24.6134 N.ar    1  UNL1       -0.1337
     15 C          -7.5572  -15.5605   25.0847 C.ar    1  UNL1        0.1425
     16 N          -8.4464  -15.8028   23.9012 N.ar    1  UNL1       -0.3039
     17 C          -7.8221  -16.0060   26.4923 C.3     1  UNL1        0.0588
     18 C          -8.8046  -15.2576   27.3435 C.3     1  UNL1        0.0080
     19 C          -7.1045  -17.2000   27.0488 C.3     1  UNL1        0.0080
     20 C          -8.0316  -17.9119   22.5041 C.3     1  UNL1        0.1014
     21 C          -9.0544  -18.7709   21.8213 C.ar    1  UNL1        0.0251
     22 C          -9.7444  -19.9622   22.4167 C.ar    1  UNL1        0.0043
     23 C         -10.6831  -20.5169   21.3866 C.ar    1  UNL1        0.0072
     24 C         -10.5732  -19.6684   20.1545 C.ar    1  UNL1        0.0352
     25 S          -9.5666  -18.5893   20.4232 S.2     1  UNL1       -0.0892
     26 N          -6.6547  -17.7803   21.9235 N.am    1  UNL1       -0.3017
     27 C          -5.7522  -18.9765   21.8550 C.2     1  UNL1        0.2222
     28 O          -6.2266  -20.3042   22.3669 O.2     1  UNL1       -0.2751
     29 H          -6.3434  -16.9089   21.5875 H       1  UNL1        0.1497
     30 C          -4.3754  -18.8449   21.2745 C.3     1  UNL1        0.0769
     31 C          -3.1908  -18.6898   22.1815 C.3     1  UNL1        0.0147
     32 C          -1.8138  -18.5582   21.6010 C.3     1  UNL1        0.0671
     33 C          -1.6218  -18.5817   20.1135 C.3     1  UNL1        0.2640
     34 F          -0.9353  -18.5471   18.7802 F       1  UNL1       -0.2043
     35 F          -0.1987  -18.4146   20.5574 F       1  UNL1       -0.2043
     36 C          -2.8064  -18.7367   19.2065 C.3     1  UNL1        0.0671
     37 C          -4.1832  -18.8683   19.7870 C.3     1  UNL1        0.0147
@<TRIPOS>BOND
     1    11    12    1
     2    12    13   ar
     3    13    14   ar
     4    14    15   ar
     5    15    17    1
     6    17    18    1
     7    17    19    1
     8    15    16   ar
     9     3    16    1
    10     3     4    1
    11     5     4    1
    12     5     6    1
    13     6     7    1
    14     8     7    1
    15     8     9    1
    16     8    10    1
    17    10     2    1
    18     2     1    1
    19    20     1    1
    20    20    26    1
    21    26    27   am
    22    27    28    2
    23    27    30    1
    24    30    31    1
    25    31    32    1
    26    32    33    1
    27    33    34    1
    28    33    35    1
    29    33    36    1
    30    36    37    1
    31    20    21    1
    32    21    22   ar
    33    22    23   ar
    34    23    24   ar
    35    24    25   ar
    36    16    12   ar
    37     9     3    1
    38    37    30    1
    39    25    21   ar
    40    10     5    1
    41    26    29    1
@<TRIPOS>MOLECULE
*****
 37 41 0 0 0
SMALL
GASTEIGER

@<TRIPOS>ATOM
      1 C          -8.0671  -17.8599   23.1423 C.3     1  UNL1        0.0419
      2 C          -8.1645  -18.4309   21.7586 C.3     1  UNL1        0.0741
      3 C          -8.0671  -18.5518   21.7818 C.3     1  UNL1        0.0904
      4 C          -7.4963  -18.2498   20.4279 C.3     1  UNL1        0.0386
      5 C          -6.3780  -19.0871   19.8817 C.3     1  UNL1        0.0594
      6 C          -5.3186  -20.1405   19.7477 C.3     1  UNL1        0.0174
      7 C          -5.3322  -20.9727   20.9956 C.3     1  UNL1        0.0174
      8 C          -6.3998  -20.4336   21.9008 C.3     1  UNL1        0.0594
      9 C          -7.5196  -19.6912   22.5893 C.3     1  UNL1        0.0386
     10 N          -7.0462  -19.2682   21.2123 N.3     1  UNL1       -0.2750
     11 C          -8.3786  -15.3196   21.4570 C.3     1  UNL1        0.0738
     12 C          -9.3286  -16.2289   22.1788 C.ar    1  UNL1        0.1433
     13 N         -10.5885  -15.8121   22.8781 N.ar    1  UNL1       -0.1337
     14 N         -11.2239  -17.0401   23.4595 N.ar    1  UNL1       -0.1337
     15 C         -10.3568  -18.2159   23.1196 C.ar    1  UNL1        0.1425
     16 N          -9.1854  -17.7145   22.3281 N.ar    1  UNL1       -0.3039
     17 C         -10.6155  -19.6426   23.5038 C.3     1  UNL1        0.0588
     18 C         -10.3688  -20.0967   24.9119 C.3     1  UNL1        0.0080
     19 C         -11.1211  -20.6153   22.4798 C.3     1  UNL1        0.0080
     20 C          -6.8621  -17.0604   23.5405 C.3     1  UNL1        0.1014
     21 C          -6.8665  -16.2866   24.8255 C.ar    1  UNL1        0.0251
     22 C          -5.7117  -15.5178   25.3958 C.ar    1  UNL1        0.0043
     23 C          -6.1581  -14.9018   26.6886 C.ar    1  UNL1        0.0072
     24 C          -7.5889  -15.2898   26.9172 C.ar    1  UNL1        0.0352
     25 S          -8.0268  -16.1457   25.7657 S.2     1  UNL1       -0.0892
     26 N          -5.6524  -17.0347   22.6538 N.am    1  UNL1       -0.3017
     27 C          -4.3618  -17.6342   23.1283 C.2     1  UNL1        0.2222
     28 O          -4.2809  -18.2593   24.4894 O.2     1  UNL1       -0.2751
     29 H          -5.7055  -16.6244   21.7605 H       1  UNL1        0.1497
     30 C          -3.1523  -17.6085   22.2416 C.3     1  UNL1        0.0769
     31 C          -2.6579  -18.8763   21.6105 C.3     1  UNL1        0.0147
     32 C          -1.4483  -18.8506   20.7237 C.3     1  UNL1        0.0671
     33 C          -0.7331  -17.5570   20.4682 C.3     1  UNL1        0.2640
     34 F           0.2755  -16.5868   19.9283 F       1  UNL1       -0.2043
     35 F           0.1115  -18.4879   19.6496 F       1  UNL1       -0.2043
     36 C          -1.2274  -16.2892   21.0993 C.3     1  UNL1        0.0671
     37 C          -2.4370  -16.3149   21.9860 C.3     1  UNL1        0.0147
@<TRIPOS>BOND
     1    11    12    1
     2    12    13   ar
     3    13    14   ar
     4    14    15   ar
     5    15    17    1
     6    17    18    1
     7    17    19    1
     8    15    16   ar
     9     3    16    1
    10     3     4    1
    11     5     4    1
    12     5     6    1
    13     6     7    1
    14     8     7    1
    15     8     9    1
    16     8    10    1
    17    10     2    1
    18     2     1    1
    19    20     1    1
    20    20    26    1
    21    26    27   am
    22    27    28    2
    23    27    30    1
    24    30    31    1
    25    31    32    1
    26    32    33    1
    27    33    34    1
    28    33    35    1
    29    33    36    1
    30    36    37    1
    31    20    21    1
    32    21    22   ar
    33    22    23   ar
    34    23    24   ar
    35    24    25   ar
    36    16    12   ar
    37     9     3    1
    38    37    30    1
    39    25    21   ar
    40    10     5    1
    41    26    29    1
@<TRIPOS>MOLECULE
*****
 37 41 0 0 0
SMALL
GASTEIGER

@<TRIPOS>ATOM
      1 C           4.6344   -0.7892   19.8119 C.3     1  UNL1        0.0419
      2 C           3.5065   -0.6888   18.8282 C.3     1  UNL1        0.0741
      3 C           3.3767   -0.6946   18.9163 C.3     1  UNL1        0.0904
      4 C           2.9963    0.6206   18.3036 C.3     1  UNL1        0.0386
      5 C           1.7133    1.2893   18.6993 C.3     1  UNL1        0.0594
      6 C           0.3998    1.5752   19.3649 C.3     1  UNL1        0.0174
      7 C           0.0982    0.4425   20.3008 C.3     1  UNL1        0.0174
      8 C           1.2252   -0.5435   20.2137 C.3     1  UNL1        0.0594
      9 C           2.4739   -1.3412   19.9247 C.3     1  UNL1        0.0386
     10 N           2.2234   -0.0201   19.2239 N.3     1  UNL1       -0.2750
     11 C           5.7385    0.6175   17.0860 C.3     1  UNL1        0.0738
     12 C           5.7454   -0.7602   17.6793 C.ar    1  UNL1        0.1433
     13 N           6.8391   -1.7767   17.5355 N.ar    1  UNL1       -0.1337
     14 N           6.4294   -3.0079   18.2878 N.ar    1  UNL1       -0.1337
     15 C           5.0826   -2.7525   18.8966 C.ar    1  UNL1        0.1425
     16 N           4.6598   -1.3633   18.5206 N.ar    1  UNL1       -0.3039
     17 C           4.2965   -3.7169   19.7345 C.3     1  UNL1        0.0588
     18 C           4.5982   -3.8589   21.1969 C.3     1  UNL1        0.0080
     19 C           3.2086   -4.5395   19.1099 C.3     1  UNL1        0.0080
     20 C           4.9275    0.3552   20.7362 C.3     1  UNL1        0.1014
     21 C           6.2327    1.0873   20.6330 C.ar    1  UNL1        0.0251
     22 C           6.4048    2.5406   20.3040 C.ar    1  UNL1        0.0043
     23 C           7.8734    2.8461   20.3084 C.ar    1  UNL1        0.0072
     24 C           8.6089    1.5815   20.6401 C.ar    1  UNL1        0.0352
     25 S           7.5949    0.4945   20.8407 S.2     1  UNL1       -0.0892
     26 N           3.9155    0.7677   21.7638 N.am    1  UNL1       -0.3017
     27 C           3.8383    0.0416   23.0740 C.2     1  UNL1        0.2222
     28 O           4.7731   -1.0970   23.3568 O.2     1  UNL1       -0.2751
     29 H           3.3020    1.5149   21.5782 H       1  UNL1        0.1497
     30 C           2.8264    0.4540   24.1015 C.3     1  UNL1        0.0769
     31 C           3.2070    0.5028   25.5516 C.3     1  UNL1        0.0147
     32 C           2.1950    0.9153   26.5792 C.3     1  UNL1        0.0671
     33 C           0.8024    1.2789   26.1565 C.3     1  UNL1        0.2640
     34 F          -0.6308    1.7118   26.2487 F       1  UNL1       -0.2043
     35 F           0.6853    1.4780   27.6386 F       1  UNL1       -0.2043
     36 C           0.4218    1.2302   24.7064 C.3     1  UNL1        0.0671
     37 C           1.4338    0.8177   23.6789 C.3     1  UNL1        0.0147
@<TRIPOS>BOND
     1    11    12    1
     2    12    13   ar
     3    13    14   ar
     4    14    15   ar
     5    15    17    1
     6    17    18    1
     7    17    19    1
     8    15    16   ar
     9     3    16    1
    10     3     4    1
    11     5     4    1
    12     5     6    1
    13     6     7    1
    14     8     7    1
    15     8     9    1
    16     8    10    1
    17    10     2    1
    18     2     1    1
    19    20     1    1
    20    20    26    1
    21    26    27   am
    22    27    28    2
    23    27    30    1
    24    30    31    1
    25    31    32    1
    26    32    33    1
    27    33    34    1
    28    33    35    1
    29    33    36    1
    30    36    37    1
    31    20    21    1
    32    21    22   ar
    33    22    23   ar
    34    23    24   ar
    35    24    25   ar
    36    16    12   ar
    37     9     3    1
    38    37    30    1
    39    25    21   ar
    40    10     5    1
    41    26    29    1
@<TRIPOS>MOLECULE
*****
 37 41 0 0 0
SMALL
GASTEIGER

@<TRIPOS>ATOM
      1 C          -8.4602  -18.6926   23.2027 C.3     1  UNL1        0.0419
      2 C          -8.7965  -19.3633   21.9038 C.3     1  UNL1        0.0741
      3 C          -8.6669  -19.4519   21.8991 C.3     1  UNL1        0.0904
      4 C          -8.6347  -19.1876   20.4230 C.3     1  UNL1        0.0386
      5 C          -7.5440  -19.7776   19.5790 C.3     1  UNL1        0.0594
      6 C          -6.3236  -20.5383   19.1525 C.3     1  UNL1        0.0174
      7 C          -5.7311  -21.1842   20.3698 C.3     1  UNL1        0.0174
      8 C          -6.5853  -20.8226   21.5486 C.3     1  UNL1        0.0594
      9 C          -7.6085  -20.3063   22.5313 C.3     1  UNL1        0.0386
     10 N          -7.7058  -19.9533   21.0599 N.3     1  UNL1       -0.2750
     11 C          -9.7861  -20.6688   24.7127 C.3     1  UNL1        0.0738
     12 C         -10.2721  -19.4212   24.0364 C.ar    1  UNL1        0.1433
     13 N         -11.3578  -18.5140   24.5345 N.ar    1  UNL1       -0.1337
     14 N         -11.5144  -17.3940   23.5492 N.ar    1  UNL1       -0.1337
     15 C         -10.5255  -17.6089   22.4420 C.ar    1  UNL1        0.1425
     16 N          -9.7577  -18.8619   22.7431 N.ar    1  UNL1       -0.3039
     17 C         -10.3374  -16.7260   21.2441 C.3     1  UNL1        0.0588
     18 C         -11.1610  -16.9500   20.0106 C.3     1  UNL1        0.0080
     19 C          -9.3257  -15.6191   21.2795 C.3     1  UNL1        0.0080
     20 C          -7.3897  -17.6430   23.2496 C.3     1  UNL1        0.1014
     21 C          -7.4088  -16.5998   24.3273 C.ar    1  UNL1        0.0251
     22 C          -8.4710  -16.4317   25.3730 C.ar    1  UNL1        0.0043
     23 C          -8.0876  -15.2695   26.2404 C.ar    1  UNL1        0.0072
     24 C          -6.7886  -14.7193   25.7307 C.ar    1  UNL1        0.0352
     25 S          -6.3690  -15.5414   24.5483 S.2     1  UNL1       -0.0892
     26 N          -6.2999  -17.6364   22.2188 N.am    1  UNL1       -0.3017
     27 C          -4.9011  -18.0173   22.6038 C.2     1  UNL1        0.2222
     28 O          -4.5920  -18.4047   24.0196 O.2     1  UNL1       -0.2751
     29 H          -6.5028  -17.3822   21.2896 H       1  UNL1        0.1497
     30 C          -3.8114  -18.0107   21.5730 C.3     1  UNL1        0.0769
     31 C          -4.1532  -18.1531   20.1194 C.3     1  UNL1        0.0147
     32 C          -3.0635  -18.1465   19.0886 C.3     1  UNL1        0.0671
     33 C          -1.6320  -17.9976   19.5115 C.3     1  UNL1        0.2640
     34 F          -0.1392  -17.8846   19.4182 F       1  UNL1       -0.2043
     35 F          -1.4554  -18.1007   18.0255 F       1  UNL1       -0.2043
     36 C          -1.2902  -17.8553   20.9651 C.3     1  UNL1        0.0671
     37 C          -2.3799  -17.8619   21.9958 C.3     1  UNL1        0.0147
@<TRIPOS>BOND
     1    11    12    1
     2    12    13   ar
     3    13    14   ar
     4    14    15   ar
     5    15    17    1
     6    17    18    1
     7    17    19    1
     8    15    16   ar
     9     3    16    1
    10     3     4    1
    11     5     4    1
    12     5     6    1
    13     6     7    1
    14     8     7    1
    15     8     9    1
    16     8    10    1
    17    10     2    1
    18     2     1    1
    19    20     1    1
    20    20    26    1
    21    26    27   am
    22    27    28    2
    23    27    30    1
    24    30    31    1
    25    31    32    1
    26    32    33    1
    27    33    34    1
    28    33    35    1
    29    33    36    1
    30    36    37    1
    31    20    21    1
    32    21    22   ar
    33    22    23   ar
    34    23    24   ar
    35    24    25   ar
    36    16    12   ar
    37     9     3    1
    38    37    30    1
    39    25    21   ar
    40    10     5    1
    41    26    29    1
@<TRIPOS>MOLECULE
*****
 37 41 0 0 0
SMALL
GASTEIGER

@<TRIPOS>ATOM
      1 C           4.8508   -0.1434   19.3272 C.3     1  UNL1        0.0419
      2 C           3.5310   -0.6603   18.8365 C.3     1  UNL1        0.0741
      3 C           3.4461   -0.5285   18.8269 C.3     1  UNL1        0.0904
      4 C           2.4089   -1.2290   19.6535 C.3     1  UNL1        0.0386
      5 C           1.1406   -0.5192   20.0244 C.3     1  UNL1        0.0594
      6 C           0.0782    0.5323   20.1483 C.3     1  UNL1        0.0174
      7 C           0.5436    1.7510   19.4079 C.3     1  UNL1        0.0174
      8 C           1.8937    1.4526   18.8264 C.3     1  UNL1        0.0594
      9 C           3.2151    0.8818   18.3711 C.3     1  UNL1        0.0386
     10 N           2.2627    0.0495   19.2074 N.3     1  UNL1       -0.2750
     11 C           5.8207    0.6542   16.9262 C.3     1  UNL1        0.0738
     12 C           5.8060   -0.6947   17.5823 C.ar    1  UNL1        0.1433
     13 N           6.8801   -1.7367   17.4800 N.ar    1  UNL1       -0.1337
     14 N           6.4525   -2.9242   18.2903 N.ar    1  UNL1       -0.1337
     15 C           5.1142   -2.6163   18.8935 C.ar    1  UNL1        0.1425
     16 N           4.7145   -1.2383   18.4559 N.ar    1  UNL1       -0.3039
     17 C           4.3156   -3.5265   19.7788 C.3     1  UNL1        0.0588
     18 C           3.3142   -4.4681   19.1783 C.3     1  UNL1        0.0080
     19 C           4.5183   -3.4951   21.2648 C.3     1  UNL1        0.0080
     20 C           5.0901    0.0251   20.7983 C.3     1  UNL1        0.1014
     21 C           6.4897    0.0053   21.3377 C.ar    1  UNL1        0.0251
     22 C           7.4129   -1.1769   21.3510 C.ar    1  UNL1        0.0043
     23 C           8.7055   -0.7485   21.9800 C.ar    1  UNL1        0.0072
     24 C           8.5812    0.6984   22.3554 C.ar    1  UNL1        0.0352
     25 S           7.2117    1.1644   21.9585 S.2     1  UNL1       -0.0892
     26 N           3.9299    0.2135   21.7303 N.am    1  UNL1       -0.3017
     27 C           3.4076    1.5917   22.0087 C.2     1  UNL1        0.2222
     28 O           4.0455    2.7817   21.3552 O.2     1  UNL1       -0.2751
     29 H           3.5112   -0.5676   22.1592 H       1  UNL1        0.1497
     30 C           2.2474    1.7800   22.9407 C.3     1  UNL1        0.0769
     31 C           1.3814    2.9991   22.8233 C.3     1  UNL1        0.0147
     32 C           0.2211    3.1875   23.7553 C.3     1  UNL1        0.0671
     33 C          -0.0729    2.1566   24.8045 C.3     1  UNL1        0.2640
     34 F          -0.7495    1.4659   25.9514 F       1  UNL1       -0.2043
     35 F          -1.1739    3.1359   25.0855 F       1  UNL1       -0.2043
     36 C           0.7931    0.9375   24.9219 C.3     1  UNL1        0.0671
     37 C           1.9533    0.7492   23.9899 C.3     1  UNL1        0.0147
@<TRIPOS>BOND
     1    11    12    1
     2    12    13   ar
     3    13    14   ar
     4    14    15   ar
     5    15    17    1
     6    17    18    1
     7    17    19    1
     8    15    16   ar
     9     3    16    1
    10     3     4    1
    11     5     4    1
    12     5     6    1
    13     6     7    1
    14     8     7    1
    15     8     9    1
    16     8    10    1
    17    10     2    1
    18     2     1    1
    19    20     1    1
    20    20    26    1
    21    26    27   am
    22    27    28    2
    23    27    30    1
    24    30    31    1
    25    31    32    1
    26    32    33    1
    27    33    34    1
    28    33    35    1
    29    33    36    1
    30    36    37    1
    31    20    21    1
    32    21    22   ar
    33    22    23   ar
    34    23    24   ar
    35    24    25   ar
    36    16    12   ar
    37     9     3    1
    38    37    30    1
    39    25    21   ar
    40    10     5    1
    41    26    29    1
@<TRIPOS>MOLECULE
*****
 37 41 0 0 0
SMALL
GASTEIGER

@<TRIPOS>ATOM
      1 C           5.4263   -0.6874   20.4934 C.3     1  UNL1        0.0419
      2 C           4.6433   -1.2179   19.3291 C.3     1  UNL1        0.0741
      3 C           4.7011   -1.3567   19.2840 C.3     1  UNL1        0.0904
      4 C           3.3950   -1.9534   19.7175 C.3     1  UNL1        0.0386
      5 C           3.1620   -3.4288   19.5801 C.3     1  UNL1        0.0594
      6 C           3.3650   -4.8823   19.2702 C.3     1  UNL1        0.0174
      7 C           4.7387   -5.0452   18.6903 C.3     1  UNL1        0.0174
      8 C           5.3848   -3.6923   18.6418 C.3     1  UNL1        0.0594
      9 C           5.7744   -2.2355   18.7131 C.3     1  UNL1        0.0386
     10 N           4.4103   -2.6933   19.1917 N.3     1  UNL1       -0.2750
     11 C           7.6023    0.1373   19.2617 C.3     1  UNL1        0.0738
     12 C           6.2676    0.8055   19.4111 C.ar    1  UNL1        0.1433
     13 N           6.0321    2.2776   19.5766 N.ar    1  UNL1       -0.1337
     14 N           4.5531    2.5007   19.6891 N.ar    1  UNL1       -0.1337
     15 C           3.8745    1.1665   19.5932 C.ar    1  UNL1        0.1425
     16 N           4.9341    0.1188   19.4214 N.ar    1  UNL1       -0.3039
     17 C           2.3958    0.9227   19.6578 C.3     1  UNL1        0.0588
     18 C           1.7032    0.8610   20.9868 C.3     1  UNL1        0.0080
     19 C           1.6097    0.7406   18.3932 C.3     1  UNL1        0.0080
     20 C           5.2226   -1.2683   21.8612 C.3     1  UNL1        0.1014
     21 C           4.5031   -0.4767   22.9128 C.ar    1  UNL1        0.0251
     22 C           3.3501   -0.9572   23.7433 C.ar    1  UNL1        0.0043
     23 C           2.9448    0.1569   24.6622 C.ar    1  UNL1        0.0072
     24 C           3.8472    1.3260   24.3995 C.ar    1  UNL1        0.0352
     25 S           4.8103    0.9344   23.3183 S.2     1  UNL1       -0.0892
     26 N           5.7384   -2.6409   22.1777 N.am    1  UNL1       -0.3017
     27 C           7.0180   -2.8031   22.9435 C.2     1  UNL1        0.2222
     28 O           7.7817   -1.5928   23.3929 O.2     1  UNL1       -0.2751
     29 H           5.2372   -3.4352   21.8827 H       1  UNL1        0.1497
     30 C           7.5338   -4.1756   23.2599 C.3     1  UNL1        0.0769
     31 C           7.1509   -4.8422   24.5480 C.3     1  UNL1        0.0147
     32 C           7.6667   -6.2148   24.8644 C.3     1  UNL1        0.0671
     33 C           8.5653   -6.9206   23.8927 C.3     1  UNL1        0.2640
     34 F           9.4361   -7.9867   23.2965 F       1  UNL1       -0.2043
     35 F           8.4848   -7.9575   24.9738 F       1  UNL1       -0.2043
     36 C           8.9482   -6.2541   22.6047 C.3     1  UNL1        0.0671
     37 C           8.4324   -4.8816   22.2883 C.3     1  UNL1        0.0147
@<TRIPOS>BOND
     1    11    12    1
     2    12    13   ar
     3    13    14   ar
     4    14    15   ar
     5    15    17    1
     6    17    18    1
     7    17    19    1
     8    15    16   ar
     9     3    16    1
    10     3     4    1
    11     5     4    1
    12     5     6    1
    13     6     7    1
    14     8     7    1
    15     8     9    1
    16     8    10    1
    17    10     2    1
    18     2     1    1
    19    20     1    1
    20    20    26    1
    21    26    27   am
    22    27    28    2
    23    27    30    1
    24    30    31    1
    25    31    32    1
    26    32    33    1
    27    33    34    1
    28    33    35    1
    29    33    36    1
    30    36    37    1
    31    20    21    1
    32    21    22   ar
    33    22    23   ar
    34    23    24   ar
    35    24    25   ar
    36    16    12   ar
    37     9     3    1
    38    37    30    1
    39    25    21   ar
    40    10     5    1
    41    26    29    1
@<TRIPOS>MOLECULE
*****
 37 41 0 0 0
SMALL
GASTEIGER

@<TRIPOS>ATOM
      1 C           4.8929   -0.2696   19.3922 C.3     1  UNL1        0.0419
      2 C           3.8529    0.0571   18.3617 C.3     1  UNL1        0.0741
      3 C           3.8319    0.2056   18.4082 C.3     1  UNL1        0.0904
      4 C           2.3697   -0.0019   18.1461 C.3     1  UNL1        0.0386
      5 C           1.3983    1.1151   18.3888 C.3     1  UNL1        0.0594
      6 C           0.8230    2.4506   18.7564 C.3     1  UNL1        0.0174
      7 C           1.9506    3.3351   19.1991 C.3     1  UNL1        0.0174
      8 C           3.2229    2.5462   19.1052 C.3     1  UNL1        0.0594
      9 C           4.3228    1.5301   18.9130 C.3     1  UNL1        0.0386
     10 N           2.8816    1.1741   18.6044 N.3     1  UNL1       -0.2750
     11 C           3.2558   -2.9726   18.8741 C.3     1  UNL1        0.0738
     12 C           4.5385   -2.3722   18.3797 C.ar    1  UNL1        0.1433
     13 N           5.7816   -3.1273   18.0127 N.ar    1  UNL1       -0.1337
     14 N           6.8146   -2.1331   17.5718 N.ar    1  UNL1       -0.1337
     15 C           6.2101   -0.7636   17.6663 C.ar    1  UNL1        0.1425
     16 N           4.8033   -0.9114   18.1656 N.ar    1  UNL1       -0.3039
     17 C           6.8924    0.5271   17.3219 C.3     1  UNL1        0.0588
     18 C           7.9105    1.1099   18.2566 C.3     1  UNL1        0.0080
     19 C           6.5565    1.2351   16.0427 C.3     1  UNL1        0.0080
     20 C           4.4773   -0.7542   20.7495 C.3     1  UNL1        0.1014
     21 C           5.3237   -1.7538   21.4806 C.ar    1  UNL1        0.0251
     22 C           4.8195   -2.8838   22.3285 C.ar    1  UNL1        0.0043
     23 C           6.0071   -3.6272   22.8640 C.ar    1  UNL1        0.0072
     24 C           7.2453   -2.9568   22.3470 C.ar    1  UNL1        0.0352
     25 S           6.8230   -1.7989   21.4920 S.2     1  UNL1       -0.0892
     26 N           3.2154   -0.2392   21.3759 N.am    1  UNL1       -0.3017
     27 C           3.2866    0.7316   22.5172 C.2     1  UNL1        0.2222
     28 O           4.6197    1.1874   23.0321 O.2     1  UNL1       -0.2751
     29 H           2.3404   -0.5383   21.0380 H       1  UNL1        0.1497
     30 C           2.0247    1.2465   23.1436 C.3     1  UNL1        0.0769
     31 C           1.1717    2.2366   22.4073 C.3     1  UNL1        0.0147
     32 C          -0.0902    2.7516   23.0337 C.3     1  UNL1        0.0671
     33 C          -0.4991    2.2764   24.3964 C.3     1  UNL1        0.2640
     34 F          -1.3010    2.1272   25.6553 F       1  UNL1       -0.2043
     35 F          -1.6306    3.2147   24.0972 F       1  UNL1       -0.2043
     36 C           0.3538    1.2864   25.1328 C.3     1  UNL1        0.0671
     37 C           1.6157    0.7714   24.5064 C.3     1  UNL1        0.0147
@<TRIPOS>BOND
     1    11    12    1
     2    12    13   ar
     3    13    14   ar
     4    14    15   ar
     5    15    17    1
     6    17    18    1
     7    17    19    1
     8    15    16   ar
     9     3    16    1
    10     3     4    1
    11     5     4    1
    12     5     6    1
    13     6     7    1
    14     8     7    1
    15     8     9    1
    16     8    10    1
    17    10     2    1
    18     2     1    1
    19    20     1    1
    20    20    26    1
    21    26    27   am
    22    27    28    2
    23    27    30    1
    24    30    31    1
    25    31    32    1
    26    32    33    1
    27    33    34    1
    28    33    35    1
    29    33    36    1
    30    36    37    1
    31    20    21    1
    32    21    22   ar
    33    22    23   ar
    34    23    24   ar
    35    24    25   ar
    36    16    12   ar
    37     9     3    1
    38    37    30    1
    39    25    21   ar
    40    10     5    1
    41    26    29    1
@<TRIPOS>MOLECULE
*****
 37 41 0 0 0
SMALL
GASTEIGER

@<TRIPOS>ATOM
      1 C           4.7930   -0.3232   19.3222 C.3     1  UNL1        0.0419
      2 C           3.4569   -0.8614   18.9034 C.3     1  UNL1        0.0741
      3 C           3.3588   -0.7419   18.8765 C.3     1  UNL1        0.0904
      4 C           2.5465   -1.2518   20.0298 C.3     1  UNL1        0.0386
      5 C           1.2903   -0.5394   20.4354 C.3     1  UNL1        0.0594
      6 C           0.1613    0.4470   20.4820 C.3     1  UNL1        0.0174
      7 C           0.3740    1.4471   19.3845 C.3     1  UNL1        0.0174
      8 C           1.6344    1.0787   18.6595 C.3     1  UNL1        0.0594
      9 C           2.9148    0.4804   18.1287 C.3     1  UNL1        0.0386
     10 N           2.2007   -0.1491   19.3090 N.3     1  UNL1       -0.2750
     11 C           5.7757    0.5075   17.0744 C.3     1  UNL1        0.0738
     12 C           5.7260   -0.8799   17.6425 C.ar    1  UNL1        0.1433
     13 N           6.7784   -1.9366   17.4820 N.ar    1  UNL1       -0.1337
     14 N           6.3179   -3.1639   18.2111 N.ar    1  UNL1       -0.1337
     15 C           4.9809   -2.8658   18.8222 C.ar    1  UNL1        0.1425
     16 N           4.6150   -1.4542   18.4708 N.ar    1  UNL1       -0.3039
     17 C           4.1548   -3.8130   19.6409 C.3     1  UNL1        0.0588
     18 C           4.3864   -3.9254   21.1186 C.3     1  UNL1        0.0080
     19 C           3.0969   -4.6478   18.9820 C.3     1  UNL1        0.0080
     20 C           4.9932    0.1820   20.7202 C.3     1  UNL1        0.1014
     21 C           4.7898    1.6357   21.0288 C.ar    1  UNL1        0.0251
     22 C           3.5612    2.2445   21.6369 C.ar    1  UNL1        0.0043
     23 C           3.7915    3.7210   21.7673 C.ar    1  UNL1        0.0072
     24 C           5.1624    4.0247   21.2398 C.ar    1  UNL1        0.0352
     25 S           5.7795    2.7359   20.7833 S.2     1  UNL1       -0.0892
     26 N           5.3969   -0.7666   21.8099 N.am    1  UNL1       -0.3017
     27 C           6.7767   -1.3550   21.8190 C.2     1  UNL1        0.2222
     28 O           7.7528   -0.9949   20.7385 O.2     1  UNL1       -0.2751
     29 H           4.7563   -1.0030   22.5191 H       1  UNL1        0.1497
     30 C           7.1803   -2.3036   22.9087 C.3     1  UNL1        0.0769
     31 C           6.2144   -2.6401   24.0059 C.3     1  UNL1        0.0147
     32 C           6.6181   -3.5886   25.0956 C.3     1  UNL1        0.0671
     33 C           7.9875   -4.2006   25.0880 C.3     1  UNL1        0.2640
     34 F           9.1634   -5.0295   25.5127 F       1  UNL1       -0.2043
     35 F           7.4300   -4.8250   26.3327 F       1  UNL1       -0.2043
     36 C           8.9534   -3.8641   23.9907 C.3     1  UNL1        0.0671
     37 C           8.5497   -2.9156   22.9011 C.3     1  UNL1        0.0147
@<TRIPOS>BOND
     1    11    12    1
     2    12    13   ar
     3    13    14   ar
     4    14    15   ar
     5    15    17    1
     6    17    18    1
     7    17    19    1
     8    15    16   ar
     9     3    16    1
    10     3     4    1
    11     5     4    1
    12     5     6    1
    13     6     7    1
    14     8     7    1
    15     8     9    1
    16     8    10    1
    17    10     2    1
    18     2     1    1
    19    20     1    1
    20    20    26    1
    21    26    27   am
    22    27    28    2
    23    27    30    1
    24    30    31    1
    25    31    32    1
    26    32    33    1
    27    33    34    1
    28    33    35    1
    29    33    36    1
    30    36    37    1
    31    20    21    1
    32    21    22   ar
    33    22    23   ar
    34    23    24   ar
    35    24    25   ar
    36    16    12   ar
    37     9     3    1
    38    37    30    1
    39    25    21   ar
    40    10     5    1
    41    26    29    1
