@<TRIPOS>MOLECULE
*****
 28 31 0 0 0
SMALL
GASTEIGER

@<TRIPOS>ATOM
      1 C          -8.5876  -18.7422   21.4387 C.2     1  UNL1        0.2252
      2 O          -8.4756  -18.7581   19.9431 O.2     1  UNL1       -0.2750
      3 N          -7.7528  -19.6767   22.2634 N.am    1  UNL1       -0.3004
      4 H          -7.8263  -19.6662   23.2451 H       1  UNL1        0.1497
      5 C          -9.5344  -17.7919   22.1099 C.3     1  UNL1        0.1154
      6 C         -10.5766  -17.5450   23.8077 C.3     1  UNL1        0.0335
      7 C          -9.1718  -17.1793   23.4301 C.3     1  UNL1        0.1377
      8 C          -9.1026  -16.6431   24.8293 C.3     1  UNL1        0.0613
      9 C          -7.7309  -16.0740   25.0405 C.3     1  UNL1        0.1290
     10 C          -6.3277  -15.5477   25.1039 C.3     1  UNL1        0.0305
     11 C          -5.8233  -14.9067   26.3627 C.3     1  UNL1        0.0025
     12 C          -6.7221  -14.7920   27.5582 C.3     1  UNL1        0.0002
     13 C          -8.1253  -15.3184   27.4948 C.3     1  UNL1        0.0025
     14 C          -8.6297  -15.9593   26.2359 C.3     1  UNL1        0.0305
     15 O          -6.9523  -16.2585   23.7718 O.3     1  UNL1       -0.2256
     16 O          -7.8427  -16.9416   22.7766 O.3     1  UNL1       -0.2251
     17 C          -6.8060  -20.6270   21.5922 C.3     1  UNL1        0.1164
     18 C          -5.4901  -20.1311   21.0704 C.ar    1  UNL1        0.0006
     19 C          -4.7872  -20.8790   19.9764 C.ar    1  UNL1        0.0007
     20 C          -3.4712  -20.3832   19.4545 C.ar    1  UNL1        0.0404
     21 C          -2.8581  -19.1394   20.0266 C.ar    1  UNL1        0.1791
     22 C          -3.5610  -18.3916   21.1204 C.ar    1  UNL1        0.1730
     23 C          -4.8769  -18.8874   21.6424 C.ar    1  UNL1        0.0375
     24 O          -3.1284  -17.1400   21.8252 O.3     1  UNL1       -0.4675
     25 C          -1.8861  -16.3273   21.6100 C.3     1  UNL1        0.2352
     26 C          -0.7698  -16.5653   20.6370 C.2     1  UNL1        0.0613
     27 C          -0.6197  -17.6749   19.6388 C.2     1  UNL1        0.1788
     28 O          -1.5491  -18.8205   19.3671 O.3     1  UNL1       -0.4476
@<TRIPOS>BOND
     1     6     7    1
     2     7     5    1
     3     5     1    1
     4     1     2    2
     5     1     3   am
     6     3    17    1
     7    17    18    1
     8    18    19   ar
     9    19    20   ar
    10    20    21   ar
    11    21    22   ar
    12    22    23   ar
    13    22    24    1
    14    24    25    1
    15    25    26    1
    16    26    27    2
    17    27    28    1
    18     7     8    1
    19     8     9    1
    20     9    10    1
    21    10    11    1
    22    11    12    1
    23    12    13    1
    24    13    14    1
    25     9    15    1
    26    15    16    1
    27    16     7    1
    28    23    18   ar
    29    14     9    1
    30    28    21    1
    31     3     4    1
@<TRIPOS>MOLECULE
*****
 28 31 0 0 0
SMALL
GASTEIGER

@<TRIPOS>ATOM
      1 C          -7.0145  -20.0447   21.1774 C.2     1  UNL1        0.2252
      2 O          -7.5881  -20.4157   22.5127 O.2     1  UNL1       -0.2750
      3 N          -7.6279  -18.9316   20.3807 N.am    1  UNL1       -0.3004
      4 H          -7.2514  -18.6881   19.5042 H       1  UNL1        0.1497
      5 C          -5.8274  -20.7868   20.6386 C.3     1  UNL1        0.1154
      6 C          -4.2836  -21.1610   19.4113 C.3     1  UNL1        0.0335
      7 C          -4.5348  -20.0635   20.4024 C.3     1  UNL1        0.1377
      8 C          -3.1897  -19.5695   19.9591 C.3     1  UNL1        0.0613
      9 C          -2.8797  -18.3179   20.7255 C.3     1  UNL1        0.1290
     10 C          -2.7088  -17.0849   21.5626 C.3     1  UNL1        0.0305
     11 C          -1.4638  -16.2581   21.4345 C.3     1  UNL1        0.0025
     12 C          -0.3898  -16.6642   20.4693 C.3     1  UNL1        0.0002
     13 C          -0.5607  -17.8972   19.6323 C.3     1  UNL1        0.0025
     14 C          -1.8056  -18.7240   19.7604 C.3     1  UNL1        0.0305
     15 O          -4.0333  -18.0383   21.6426 O.3     1  UNL1       -0.2256
     16 O          -5.0562  -19.1171   21.4429 O.3     1  UNL1       -0.2251
     17 C          -8.8150  -18.1895   20.9194 C.3     1  UNL1        0.1164
     18 C          -8.7734  -17.6116   22.3030 C.ar    1  UNL1        0.0006
     19 C         -10.0005  -17.6414   23.1652 C.ar    1  UNL1        0.0007
     20 C          -9.9590  -17.0635   24.5489 C.ar    1  UNL1        0.0404
     21 C          -8.6905  -16.4560   25.0702 C.ar    1  UNL1        0.1791
     22 C          -7.4636  -16.4263   24.2080 C.ar    1  UNL1        0.1730
     23 C          -7.5049  -17.0041   22.8244 C.ar    1  UNL1        0.0375
     24 O          -6.1071  -15.8727   24.5302 O.3     1  UNL1       -0.4675
     25 C          -5.6428  -15.2121   25.7945 C.3     1  UNL1        0.2352
     26 C          -6.4202  -14.9420   27.0484 C.2     1  UNL1        0.0613
     27 C          -7.8539  -15.2657   27.3482 C.2     1  UNL1        0.1788
     28 O          -8.8643  -15.9395   26.4678 O.3     1  UNL1       -0.4476
@<TRIPOS>BOND
     1     6     7    1
     2     7     5    1
     3     5     1    1
     4     1     2    2
     5     1     3   am
     6     3    17    1
     7    17    18    1
     8    18    19   ar
     9    19    20   ar
    10    20    21   ar
    11    21    22   ar
    12    22    23   ar
    13    22    24    1
    14    24    25    1
    15    25    26    1
    16    26    27    2
    17    27    28    1
    18     7     8    1
    19     8     9    1
    20     9    10    1
    21    10    11    1
    22    11    12    1
    23    12    13    1
    24    13    14    1
    25     9    15    1
    26    15    16    1
    27    16     7    1
    28    23    18   ar
    29    14     9    1
    30    28    21    1
    31     3     4    1
@<TRIPOS>MOLECULE
*****
 28 31 0 0 0
SMALL
GASTEIGER

@<TRIPOS>ATOM
      1 C          -7.2988  -15.7270   25.5581 C.2     1  UNL1        0.2252
      2 O          -6.5921  -15.2653   26.7978 O.2     1  UNL1       -0.2750
      3 N          -6.5242  -15.9543   24.2937 N.am    1  UNL1       -0.3004
      4 H          -6.9881  -16.2574   23.4800 H       1  UNL1        0.1497
      5 C          -8.7802  -15.9616   25.5825 C.3     1  UNL1        0.1154
      6 C          -9.4219  -17.8438   25.8567 C.3     1  UNL1        0.0335
      7 C          -9.3972  -16.9581   24.6464 C.3     1  UNL1        0.1377
      8 C         -10.0194  -18.1396   23.9632 C.3     1  UNL1        0.0613
      9 C         -10.2502  -17.7758   22.5264 C.3     1  UNL1        0.1290
     10 C         -10.4192  -17.2717   21.1237 C.3     1  UNL1        0.0305
     11 C         -11.0235  -18.1586   20.0758 C.3     1  UNL1        0.0025
     12 C         -11.4588  -19.5496   20.4304 C.3     1  UNL1        0.0002
     13 C         -11.2897  -20.0537   21.8331 C.3     1  UNL1        0.0025
     14 C         -10.6855  -19.1668   22.8810 C.3     1  UNL1        0.0305
     15 O          -9.7706  -16.3694   22.3216 O.3     1  UNL1       -0.2256
     16 O          -9.2435  -15.8640   23.6318 O.3     1  UNL1       -0.2251
     17 C          -5.0429  -15.7197   24.2693 C.3     1  UNL1        0.1164
     18 C          -4.1588  -16.5945   23.4308 C.ar    1  UNL1        0.0006
     19 C          -4.3666  -18.0800   23.4200 C.ar    1  UNL1        0.0007
     20 C          -3.4825  -18.9549   22.5815 C.ar    1  UNL1        0.0404
     21 C          -2.3907  -18.3442   21.7538 C.ar    1  UNL1        0.1791
     22 C          -2.1830  -16.8588   21.7647 C.ar    1  UNL1        0.1730
     23 C          -3.0669  -15.9839   22.6031 C.ar    1  UNL1        0.0375
     24 O          -1.1615  -16.0518   21.0193 O.3     1  UNL1       -0.4675
     25 C          -0.0955  -16.5312   20.0790 C.3     1  UNL1        0.2352
     26 C           0.2122  -17.9357   19.6520 C.2     1  UNL1        0.0613
     27 C          -0.4699  -19.2079   20.0596 C.2     1  UNL1        0.1788
     28 O          -1.6284  -19.3897   20.9950 O.3     1  UNL1       -0.4476
@<TRIPOS>BOND
     1     6     7    1
     2     7     5    1
     3     5     1    1
     4     1     2    2
     5     1     3   am
     6     3    17    1
     7    17    18    1
     8    18    19   ar
     9    19    20   ar
    10    20    21   ar
    11    21    22   ar
    12    22    23   ar
    13    22    24    1
    14    24    25    1
    15    25    26    1
    16    26    27    2
    17    27    28    1
    18     7     8    1
    19     8     9    1
    20     9    10    1
    21    10    11    1
    22    11    12    1
    23    12    13    1
    24    13    14    1
    25     9    15    1
    26    15    16    1
    27    16     7    1
    28    23    18   ar
    29    14     9    1
    30    28    21    1
    31     3     4    1
@<TRIPOS>MOLECULE
*****
 28 31 0 0 0
SMALL
GASTEIGER

@<TRIPOS>ATOM
      1 C          -4.6036  -19.1203   20.6314 C.2     1  UNL1        0.2252
      2 O          -4.6684  -18.4515   19.2905 O.2     1  UNL1       -0.2750
      3 N          -5.6045  -20.1782   20.9911 N.am    1  UNL1       -0.3004
      4 H          -5.5619  -20.6172   21.8713 H       1  UNL1        0.1497
      5 C          -3.5379  -18.7314   21.6128 C.3     1  UNL1        0.1154
      6 C          -2.4578  -18.1278   23.1935 C.3     1  UNL1        0.0335
      7 C          -3.8868  -17.8900   22.8045 C.3     1  UNL1        0.1377
      8 C          -3.9371  -17.0982   24.0775 C.3     1  UNL1        0.0613
      9 C          -5.3242  -16.5470   24.2262 C.3     1  UNL1        0.1290
     10 C          -6.7453  -16.0671   24.2391 C.3     1  UNL1        0.0305
     11 C          -7.2388  -15.2146   25.3702 C.3     1  UNL1        0.0025
     12 C          -6.3110  -14.8418   26.4886 C.3     1  UNL1        0.0002
     13 C          -4.8899  -15.3217   26.4756 C.3     1  UNL1        0.0025
     14 C          -4.3965  -16.1743   25.3444 C.3     1  UNL1        0.0305
     15 O          -6.1312  -16.9981   23.0450 O.3     1  UNL1       -0.2256
     16 O          -5.2429  -17.8281   22.1664 O.3     1  UNL1       -0.2251
     17 C          -6.6702  -20.5670   20.0098 C.3     1  UNL1        0.1164
     18 C          -7.9938  -19.8614   20.0212 C.ar    1  UNL1        0.0006
     19 C          -8.9756  -20.0909   18.9106 C.ar    1  UNL1        0.0007
     20 C         -10.2993  -19.3853   18.9221 C.ar    1  UNL1        0.0404
     21 C         -10.6411  -18.4502   20.0441 C.ar    1  UNL1        0.1791
     22 C          -9.6593  -18.2209   21.1546 C.ar    1  UNL1        0.1730
     23 C          -8.3356  -18.9264   21.1432 C.ar    1  UNL1        0.0375
     24 O          -9.7989  -17.3372   22.3587 O.3     1  UNL1       -0.4675
     25 C         -10.9549  -16.4648   22.7496 C.3     1  UNL1        0.2352
     26 C         -12.2565  -16.2606   22.0329 C.2     1  UNL1        0.0613
     27 C         -12.7240  -16.8783   20.7484 C.2     1  UNL1        0.1788
     28 O         -12.0050  -17.8528   19.8633 O.3     1  UNL1       -0.4476
@<TRIPOS>BOND
     1     6     7    1
     2     7     5    1
     3     5     1    1
     4     1     2    2
     5     1     3   am
     6     3    17    1
     7    17    18    1
     8    18    19   ar
     9    19    20   ar
    10    20    21   ar
    11    21    22   ar
    12    22    23   ar
    13    22    24    1
    14    24    25    1
    15    25    26    1
    16    26    27    2
    17    27    28    1
    18     7     8    1
    19     8     9    1
    20     9    10    1
    21    10    11    1
    22    11    12    1
    23    12    13    1
    24    13    14    1
    25     9    15    1
    26    15    16    1
    27    16     7    1
    28    23    18   ar
    29    14     9    1
    30    28    21    1
    31     3     4    1
@<TRIPOS>MOLECULE
*****
 28 31 0 0 0
SMALL
GASTEIGER

@<TRIPOS>ATOM
      1 C          -8.4140  -18.0509   21.5687 C.2     1  UNL1        0.2252
      2 O          -7.4248  -17.1191   22.2035 O.2     1  UNL1       -0.2750
      3 N          -8.1376  -19.5247   21.5289 N.am    1  UNL1       -0.3004
      4 H          -8.7869  -20.1363   21.1123 H       1  UNL1        0.1497
      5 C          -9.6798  -17.5090   20.9736 C.3     1  UNL1        0.1154
      6 C         -11.5804  -17.4519   20.3299 C.3     1  UNL1        0.0335
      7 C         -10.9864  -17.7050   21.6838 C.3     1  UNL1        0.1377
      8 C         -12.4170  -17.8482   22.1111 C.3     1  UNL1        0.0613
      9 C         -12.4342  -18.1488   23.5806 C.3     1  UNL1        0.1290
     10 C         -12.2944  -18.4422   25.0450 C.3     1  UNL1        0.0305
     11 C         -13.5170  -18.6617   25.8859 C.3     1  UNL1        0.0025
     12 C         -14.8793  -18.5877   25.2624 C.3     1  UNL1        0.0002
     13 C         -15.0190  -18.2943   23.7980 C.3     1  UNL1        0.0025
     14 C         -13.7964  -18.0748   22.9571 C.3     1  UNL1        0.0305
     15 O         -11.0139  -18.1914   24.0615 O.3     1  UNL1       -0.2256
     16 O         -10.1192  -17.9171   22.8892 O.3     1  UNL1       -0.2251
     17 C          -6.8718  -20.0667   22.1240 C.3     1  UNL1        0.1164
     18 C          -5.5529  -19.7810   21.4691 C.ar    1  UNL1        0.0006
     19 C          -5.0317  -20.6968   20.4016 C.ar    1  UNL1        0.0007
     20 C          -3.7128  -20.4112   19.7466 C.ar    1  UNL1        0.0404
     21 C          -2.9151  -19.2097   20.1593 C.ar    1  UNL1        0.1791
     22 C          -3.4363  -18.2940   21.2267 C.ar    1  UNL1        0.1730
     23 C          -4.7552  -18.5796   21.8817 C.ar    1  UNL1        0.0375
     24 O          -2.8059  -17.0517   21.7830 O.3     1  UNL1       -0.4675
     25 C          -1.4984  -16.4185   21.4090 C.3     1  UNL1        0.2352
     26 C          -0.4987  -16.8711   20.3865 C.2     1  UNL1        0.0613
     27 C          -0.5593  -18.0687   19.4854 C.2     1  UNL1        0.1788
     28 O          -1.6347  -19.1095   19.3842 O.3     1  UNL1       -0.4476
@<TRIPOS>BOND
     1     6     7    1
     2     7     5    1
     3     5     1    1
     4     1     2    2
     5     1     3   am
     6     3    17    1
     7    17    18    1
     8    18    19   ar
     9    19    20   ar
    10    20    21   ar
    11    21    22   ar
    12    22    23   ar
    13    22    24    1
    14    24    25    1
    15    25    26    1
    16    26    27    2
    17    27    28    1
    18     7     8    1
    19     8     9    1
    20     9    10    1
    21    10    11    1
    22    11    12    1
    23    12    13    1
    24    13    14    1
    25     9    15    1
    26    15    16    1
    27    16     7    1
    28    23    18   ar
    29    14     9    1
    30    28    21    1
    31     3     4    1
@<TRIPOS>MOLECULE
*****
 28 31 0 0 0
SMALL
GASTEIGER

@<TRIPOS>ATOM
      1 C         -10.7337   -4.2107   18.2945 C.2     1  UNL1        0.2252
      2 O         -10.3207   -3.8800   16.8910 O.2     1  UNL1       -0.2750
      3 N         -11.2174   -3.1250   19.2096 N.am    1  UNL1       -0.3004
      4 H         -11.4885   -3.3420   20.1308 H       1  UNL1        0.1497
      5 C         -10.6630   -5.6272   18.7831 C.3     1  UNL1        0.1154
      6 C         -10.8419   -7.3407   17.7528 C.3     1  UNL1        0.0335
      7 C         -11.8235   -6.5531   18.5690 C.3     1  UNL1        0.1377
      8 C         -12.7789   -7.6436   18.1843 C.3     1  UNL1        0.0613
      9 C         -14.1083   -7.3365   18.8074 C.3     1  UNL1        0.1290
     10 C         -15.3706   -6.9007   19.4907 C.3     1  UNL1        0.0305
     11 C         -16.6151   -7.7286   19.3659 C.3     1  UNL1        0.0025
     12 C         -16.5975   -8.9923   18.5579 C.3     1  UNL1        0.0002
     13 C         -15.3352   -9.4281   17.8747 C.3     1  UNL1        0.0025
     14 C         -14.0906   -8.6002   17.9995 C.3     1  UNL1        0.0305
     15 O         -13.9745   -6.0561   19.5773 O.3     1  UNL1       -0.2256
     16 O         -12.5625   -5.5719   19.4299 O.3     1  UNL1       -0.2251
     17 C         -11.2881   -1.7085   18.7210 C.3     1  UNL1        0.1164
     18 C         -12.6024   -0.9858   18.7041 C.ar    1  UNL1        0.0006
     19 C         -12.6726    0.4315   18.2178 C.ar    1  UNL1        0.0007
     20 C         -13.9869    1.1543   18.2009 C.ar    1  UNL1        0.0404
     21 C         -15.2309    0.4598   18.6703 C.ar    1  UNL1        0.1791
     22 C         -15.1606   -0.9573   19.1565 C.ar    1  UNL1        0.1730
     23 C         -13.8464   -1.6802   19.1735 C.ar    1  UNL1        0.0375
     24 O         -16.2715   -1.8282   19.6640 O.3     1  UNL1       -0.4675
     25 C         -17.7272   -1.4968   19.8105 C.3     1  UNL1        0.2352
     26 C         -18.4312   -0.2129   19.4857 C.2     1  UNL1        0.0613
     27 C         -17.8538    1.0570   18.9342 C.2     1  UNL1        0.1788
     28 O         -16.4294    1.3563   18.5713 O.3     1  UNL1       -0.4476
@<TRIPOS>BOND
     1     6     7    1
     2     7     5    1
     3     5     1    1
     4     1     2    2
     5     1     3   am
     6     3    17    1
     7    17    18    1
     8    18    19   ar
     9    19    20   ar
    10    20    21   ar
    11    21    22   ar
    12    22    23   ar
    13    22    24    1
    14    24    25    1
    15    25    26    1
    16    26    27    2
    17    27    28    1
    18     7     8    1
    19     8     9    1
    20     9    10    1
    21    10    11    1
    22    11    12    1
    23    12    13    1
    24    13    14    1
    25     9    15    1
    26    15    16    1
    27    16     7    1
    28    23    18   ar
    29    14     9    1
    30    28    21    1
    31     3     4    1
