@<TRIPOS>MOLECULE
*****
 42 47 0 0 0
SMALL
GASTEIGER

@<TRIPOS>ATOM
      1 N          -9.8885  -17.8376   21.0695 N.3     1  UNL1       -0.2679
      2 C         -10.1461  -18.6688   22.2914 C.3     1  UNL1        0.0978
      3 C          -9.1403  -19.6923   22.7279 C.3     1  UNL1        0.0224
      4 C          -9.3979  -20.5235   23.9497 C.3     1  UNL1        0.0065
      5 C         -10.6614  -20.3311   24.7350 C.3     1  UNL1        0.0277
      6 C         -11.6672  -19.3075   24.2984 C.ar    1  UNL1       -0.0073
      7 C         -12.9307  -19.1151   25.0837 C.ar    1  UNL1       -0.0015
      8 C         -13.9365  -18.0915   24.6471 C.ar    1  UNL1        0.0203
      9 C         -13.6789  -17.2604   23.4253 C.ar    1  UNL1        0.0985
     10 N         -12.4155  -17.4528   22.6401 N.ar    1  UNL1       -0.2471
     11 C         -11.4096  -18.4764   23.0766 C.ar    1  UNL1        0.0695
     12 C         -10.0838  -18.4293   19.7051 C.3     1  UNL1        0.0725
     13 C          -9.2217  -19.5702   19.2519 C.3     1  UNL1        0.0188
     14 C          -7.7337  -19.5021   19.4286 C.3     1  UNL1        0.0188
     15 C          -6.9511  -20.7553   19.6871 C.3     1  UNL1        0.0727
     16 N          -5.6419  -20.6851   20.4160 N.3     1  UNL1       -0.2651
     17 C          -4.3548  -20.8494   19.6635 C.3     1  UNL1        0.1009
     18 C          -2.6355  -17.3322   19.0128 C.ar    1  UNL1        0.0204
     19 C          -1.3048  -17.5407   19.6729 C.ar    1  UNL1        0.0989
     20 N          -0.9908  -18.8521   20.3298 N.ar    1  UNL1       -0.2426
     21 C          -2.0074  -19.9550   20.3267 C.ar    1  UNL1        0.0959
     22 C          -3.3381  -19.7464   19.6666 C.ar    1  UNL1        0.0131
     23 C          -3.6521  -18.4350   19.0097 C.ar    1  UNL1        0.0002
     24 C          -5.6199  -20.4505   21.8974 C.3     1  UNL1        0.1009
     25 C          -5.0173  -19.1923   22.4486 C.ar    1  UNL1        0.0131
     26 C          -3.5863  -19.1803   22.8981 C.ar    1  UNL1        0.0002
     27 C          -2.9839  -17.9221   23.4493 C.ar    1  UNL1        0.0204
     28 C          -3.8124  -16.6759   23.5511 C.ar    1  UNL1        0.0989
     29 N          -5.2434  -16.6878   23.1016 N.ar    1  UNL1       -0.2426
     30 C          -5.8459  -17.9460   22.5504 C.ar    1  UNL1        0.0959
     31 C          -9.4357  -16.4148   21.2122 C.3     1  UNL1        0.0886
     32 C          -8.7354  -15.9723   22.4628 C.3     1  UNL1        0.0748
     33 C          -9.1087  -16.5751   23.7846 C.3     1  UNL1        0.0432
     34 C          -8.4084  -16.1326   25.0353 C.ar    1  UNL1       -0.0234
     35 C          -8.7817  -16.7354   26.3571 C.ar    1  UNL1       -0.0045
     36 C          -8.0815  -16.2929   27.6076 C.ar    1  UNL1       -0.0003
     37 C          -7.0080  -15.2477   27.5363 C.ar    1  UNL1       -0.0003
     38 C          -6.6347  -14.6450   26.2145 C.ar    1  UNL1       -0.0032
     39 C          -7.3349  -15.0874   24.9639 C.ar    1  UNL1       -0.0103
     40 C          -6.9616  -14.4847   23.6420 C.3     1  UNL1        0.0953
     41 N          -7.6619  -14.9271   22.3915 N.3     1  UNL1       -0.2934
     42 H          -6.9432  -15.2857   21.7627 H       1  UNL1        0.1236
@<TRIPOS>BOND
     1    18    19   ar
     2    19    20   ar
     3    20    21   ar
     4    21    22   ar
     5    22    17    1
     6    17    16    1
     7    16    15    1
     8    15    14    1
     9    14    13    1
    10    13    12    1
    11    12     1    1
    12     1    31    1
    13    32    31    1
    14    32    33    1
    15    33    34    1
    16    34    35   ar
    17    35    36   ar
    18    36    37   ar
    19    37    38   ar
    20    38    39   ar
    21    39    40    1
    22    40    41    1
    23     2     1    1
    24     2     3    1
    25     3     4    1
    26     4     5    1
    27     5     6    1
    28     6     7   ar
    29     7     8   ar
    30     8     9   ar
    31     9    10   ar
    32    10    11   ar
    33    16    24    1
    34    24    25    1
    35    25    26   ar
    36    26    27   ar
    37    27    28   ar
    38    28    29   ar
    39    29    30   ar
    40    22    23   ar
    41    23    18   ar
    42    41    32    1
    43    11     2    1
    44    30    25   ar
    45    39    34   ar
    46    11     6   ar
    47    41    42    1
@<TRIPOS>MOLECULE
*****
 42 47 0 0 0
SMALL
GASTEIGER

@<TRIPOS>ATOM
      1 N          -9.8836  -17.7911   21.0689 N.3     1  UNL1       -0.2679
      2 C         -10.1450  -18.6363   22.2803 C.3     1  UNL1        0.0978
      3 C          -9.1421  -19.6673   22.7060 C.3     1  UNL1        0.0224
      4 C          -9.4035  -20.5125   23.9173 C.3     1  UNL1        0.0065
      5 C         -10.6677  -20.3267   24.7029 C.3     1  UNL1        0.0277
      6 C         -11.6705  -19.2957   24.2772 C.ar    1  UNL1       -0.0073
      7 C         -12.9348  -19.1098   25.0628 C.ar    1  UNL1       -0.0015
      8 C         -13.9377  -18.0788   24.6371 C.ar    1  UNL1        0.0203
      9 C         -13.6763  -17.2336   23.4257 C.ar    1  UNL1        0.0985
     10 N         -12.4121  -17.4194   22.6401 N.ar    1  UNL1       -0.2471
     11 C         -11.4092  -18.4505   23.0659 C.ar    1  UNL1        0.0695
     12 C         -10.0647  -18.3701   19.6971 C.3     1  UNL1        0.0725
     13 C          -9.2235  -19.5311   19.2560 C.3     1  UNL1        0.0188
     14 C          -7.7329  -19.4807   19.4155 C.3     1  UNL1        0.0188
     15 C          -6.9632  -20.7419   19.6736 C.3     1  UNL1        0.0727
     16 N          -5.6469  -20.6839   20.3907 N.3     1  UNL1       -0.2651
     17 C          -5.6104  -20.4765   21.8758 C.3     1  UNL1        0.1009
     18 C          -3.0097  -17.9530   23.4940 C.ar    1  UNL1        0.0204
     19 C          -3.8394  -16.7062   23.5782 C.ar    1  UNL1        0.0989
     20 N          -5.2594  -16.7162   23.0950 N.ar    1  UNL1       -0.2426
     21 C          -5.8497  -17.9729   22.5275 C.ar    1  UNL1        0.0959
     22 C          -5.0201  -19.2197   22.4433 C.ar    1  UNL1        0.0131
     23 C          -3.6001  -19.2098   22.9265 C.ar    1  UNL1        0.0002
     24 C          -4.3672  -20.8334   19.6226 C.3     1  UNL1        0.1009
     25 C          -3.3476  -19.7332   19.6426 C.ar    1  UNL1        0.0131
     26 C          -3.6488  -18.4195   18.9845 C.ar    1  UNL1        0.0002
     27 C          -2.6293  -17.3194   19.0045 C.ar    1  UNL1        0.0204
     28 C          -1.3086  -17.5332   19.6826 C.ar    1  UNL1        0.0989
     29 N          -1.0073  -18.8470   20.3408 N.ar    1  UNL1       -0.2426
     30 C          -2.0269  -19.9470   20.3207 C.ar    1  UNL1        0.0959
     31 C          -9.4411  -16.3669   21.2294 C.3     1  UNL1        0.0886
     32 C          -8.7260  -15.9397   22.4769 C.3     1  UNL1        0.0748
     33 C          -9.1044  -16.5365   23.8000 C.3     1  UNL1        0.0432
     34 C          -8.3893  -16.1093   25.0475 C.ar    1  UNL1       -0.0234
     35 C          -8.7677  -16.7061   26.3706 C.ar    1  UNL1       -0.0045
     36 C          -8.0526  -16.2789   27.6180 C.ar    1  UNL1       -0.0003
     37 C          -6.9591  -15.2549   27.5424 C.ar    1  UNL1       -0.0003
     38 C          -6.5807  -14.6581   26.2193 C.ar    1  UNL1       -0.0032
     39 C          -7.2958  -15.0853   24.9719 C.ar    1  UNL1       -0.0103
     40 C          -6.9174  -14.4885   23.6487 C.3     1  UNL1        0.0953
     41 N          -7.6325  -14.9157   22.4013 N.3     1  UNL1       -0.2934
     42 H          -6.9242  -15.2875   21.7685 H       1  UNL1        0.1236
@<TRIPOS>BOND
     1    18    19   ar
     2    19    20   ar
     3    20    21   ar
     4    21    22   ar
     5    22    17    1
     6    17    16    1
     7    16    15    1
     8    15    14    1
     9    14    13    1
    10    13    12    1
    11    12     1    1
    12     1    31    1
    13    32    31    1
    14    32    33    1
    15    33    34    1
    16    34    35   ar
    17    35    36   ar
    18    36    37   ar
    19    37    38   ar
    20    38    39   ar
    21    39    40    1
    22    40    41    1
    23     2     1    1
    24     2     3    1
    25     3     4    1
    26     4     5    1
    27     5     6    1
    28     6     7   ar
    29     7     8   ar
    30     8     9   ar
    31     9    10   ar
    32    10    11   ar
    33    16    24    1
    34    24    25    1
    35    25    26   ar
    36    26    27   ar
    37    27    28   ar
    38    28    29   ar
    39    29    30   ar
    40    22    23   ar
    41    23    18   ar
    42    41    32    1
    43    11     2    1
    44    30    25   ar
    45    39    34   ar
    46    11     6   ar
    47    41    42    1
@<TRIPOS>MOLECULE
*****
 42 47 0 0 0
SMALL
GASTEIGER

@<TRIPOS>ATOM
      1 N           3.6732    0.4386   25.1941 N.3     1  UNL1       -0.2679
      2 C           2.2529    0.8527   25.4417 C.3     1  UNL1        0.0978
      3 C           1.3318    1.1022   24.2845 C.3     1  UNL1        0.0224
      4 C          -0.0885    1.5162   24.5321 C.3     1  UNL1        0.0065
      5 C          -0.5877    1.6808   25.9369 C.3     1  UNL1        0.0277
      6 C           0.3334    1.4313   27.0942 C.ar    1  UNL1       -0.0073
      7 C          -0.1658    1.5958   28.4991 C.ar    1  UNL1       -0.0015
      8 C           0.7553    1.3463   29.6564 C.ar    1  UNL1        0.0203
      9 C           2.1756    0.9323   29.4088 C.ar    1  UNL1        0.0985
     10 N           2.6748    0.7677   28.0039 N.ar    1  UNL1       -0.2471
     11 C           1.7537    1.0172   26.8466 C.ar    1  UNL1        0.0695
     12 C           4.7044    1.4694   24.8419 C.3     1  UNL1        0.0725
     13 C           4.5082    2.3468   23.6411 C.3     1  UNL1        0.0188
     14 C           4.5839    1.7596   22.2629 C.3     1  UNL1        0.0188
     15 C           4.0289    2.5173   21.0934 C.3     1  UNL1        0.0727
     16 N           4.1440    1.9503   19.7094 N.3     1  UNL1       -0.2651
     17 C           5.4921    1.8055   19.0679 C.3     1  UNL1        0.1009
     18 C           7.4260   -1.5419   19.9651 C.ar    1  UNL1        0.0204
     19 C           7.3610   -2.2670   18.6536 C.ar    1  UNL1        0.0989
     20 N           6.6731   -1.6346   17.4803 N.ar    1  UNL1       -0.2426
     21 C           6.0501   -0.2771   17.6183 C.ar    1  UNL1        0.0959
     22 C           6.1151    0.4480   18.9298 C.ar    1  UNL1        0.0131
     23 C           6.8030   -0.1844   20.1032 C.ar    1  UNL1        0.0002
     24 C           2.9108    1.5281   18.9670 C.3     1  UNL1        0.1009
     25 C           1.5586    1.9599   19.4520 C.ar    1  UNL1        0.0131
     26 C           1.0031    3.2904   19.0385 C.ar    1  UNL1        0.0002
     27 C          -0.3490    3.7221   19.5235 C.ar    1  UNL1        0.0204
     28 C          -1.1456    2.8233   20.4221 C.ar    1  UNL1        0.0989
     29 N          -0.5901    1.4928   20.8357 N.ar    1  UNL1       -0.2426
     30 C           0.7620    1.0611   20.3507 C.ar    1  UNL1        0.0959
     31 C           4.0623   -1.0062   25.2987 C.3     1  UNL1        0.0886
     32 C           4.2551   -1.8229   24.0554 C.3     1  UNL1        0.0748
     33 C           3.6537   -1.3683   22.7586 C.3     1  UNL1        0.0432
     34 C           3.8465   -2.1851   21.5153 C.ar    1  UNL1       -0.0234
     35 C           3.2450   -1.7304   20.2186 C.ar    1  UNL1       -0.0045
     36 C           3.4378   -2.5472   18.9753 C.ar    1  UNL1       -0.0003
     37 C           4.2320   -3.8185   19.0288 C.ar    1  UNL1       -0.0003
     38 C           4.8334   -4.2732   20.3255 C.ar    1  UNL1       -0.0032
     39 C           4.6407   -3.4564   21.5688 C.ar    1  UNL1       -0.0103
     40 C           5.2421   -3.9110   22.8656 C.3     1  UNL1        0.0953
     41 N           5.0493   -3.0943   24.1088 N.3     1  UNL1       -0.2934
     42 H           5.9797   -2.8463   24.4455 H       1  UNL1        0.1236
@<TRIPOS>BOND
     1    18    19   ar
     2    19    20   ar
     3    20    21   ar
     4    21    22   ar
     5    22    17    1
     6    17    16    1
     7    16    15    1
     8    15    14    1
     9    14    13    1
    10    13    12    1
    11    12     1    1
    12     1    31    1
    13    32    31    1
    14    32    33    1
    15    33    34    1
    16    34    35   ar
    17    35    36   ar
    18    36    37   ar
    19    37    38   ar
    20    38    39   ar
    21    39    40    1
    22    40    41    1
    23     2     1    1
    24     2     3    1
    25     3     4    1
    26     4     5    1
    27     5     6    1
    28     6     7   ar
    29     7     8   ar
    30     8     9   ar
    31     9    10   ar
    32    10    11   ar
    33    16    24    1
    34    24    25    1
    35    25    26   ar
    36    26    27   ar
    37    27    28   ar
    38    28    29   ar
    39    29    30   ar
    40    22    23   ar
    41    23    18   ar
    42    41    32    1
    43    11     2    1
    44    30    25   ar
    45    39    34   ar
    46    11     6   ar
    47    41    42    1
@<TRIPOS>MOLECULE
*****
 42 47 0 0 0
SMALL
GASTEIGER

@<TRIPOS>ATOM
      1 N           0.0051    2.6192   20.3001 N.3     1  UNL1       -0.2679
      2 C          -0.9008    3.2720   19.2985 C.3     1  UNL1        0.0978
      3 C          -0.3433    3.7794   18.0017 C.3     1  UNL1        0.0224
      4 C          -1.2492    4.4321   17.0001 C.3     1  UNL1        0.0065
      5 C          -2.7126    4.5774   17.2952 C.3     1  UNL1        0.0277
      6 C          -3.2702    4.0700   18.5920 C.ar    1  UNL1       -0.0073
      7 C          -4.7337    4.2154   18.8872 C.ar    1  UNL1       -0.0015
      8 C          -5.2913    3.7080   20.1839 C.ar    1  UNL1        0.0203
      9 C          -4.3854    3.0552   21.1856 C.ar    1  UNL1        0.0985
     10 N          -2.9219    2.9099   20.8904 N.ar    1  UNL1       -0.2471
     11 C          -2.3643    3.4173   19.5936 C.ar    1  UNL1        0.0695
     12 C           0.7514    3.4579   21.2949 C.3     1  UNL1        0.0725
     13 C           0.0238    4.0715   22.4544 C.3     1  UNL1        0.0188
     14 C          -0.0309    3.3536   23.7702 C.3     1  UNL1        0.0188
     15 C           1.2265    3.1358   24.5586 C.3     1  UNL1        0.0727
     16 N           1.7300    1.7432   24.7979 N.3     1  UNL1       -0.2651
     17 C           2.2399    1.3526   26.1534 C.3     1  UNL1        0.1009
     18 C          -1.1681    0.8672   28.1282 C.ar    1  UNL1        0.0204
     19 C          -0.6569    0.5606   29.5046 C.ar    1  UNL1        0.0989
     20 N           0.8198    0.5179   29.7640 N.ar    1  UNL1       -0.2426
     21 C           1.7855    0.7819   28.6470 C.ar    1  UNL1        0.0959
     22 C           1.2743    1.0886   27.2705 C.ar    1  UNL1        0.0131
     23 C          -0.2025    1.1313   27.0111 C.ar    1  UNL1        0.0002
     24 C           1.7236    0.7412   23.6816 C.3     1  UNL1        0.1009
     25 C           3.0166    0.3011   23.0615 C.ar    1  UNL1        0.0131
     26 C           3.5117   -1.0989   23.2733 C.ar    1  UNL1        0.0002
     27 C           4.8046   -1.5390   22.6531 C.ar    1  UNL1        0.0204
     28 C           5.6025   -0.5791   21.8212 C.ar    1  UNL1        0.0989
     29 N           5.1074    0.8209   21.6094 N.ar    1  UNL1       -0.2426
     30 C           3.8144    1.2610   22.2296 C.ar    1  UNL1        0.0959
     31 C           0.1647    1.1278   20.3070 C.3     1  UNL1        0.0886
     32 C           1.3879    0.5016   19.7055 C.3     1  UNL1        0.0748
     33 C           1.7190   -0.9314   20.0004 C.3     1  UNL1        0.0432
     34 C           2.9422   -1.5576   19.3989 C.ar    1  UNL1       -0.0234
     35 C           3.2734   -2.9905   19.6938 C.ar    1  UNL1       -0.0045
     36 C           4.4966   -3.6166   19.0923 C.ar    1  UNL1       -0.0003
     37 C           5.3886   -2.8098   18.1960 C.ar    1  UNL1       -0.0003
     38 C           5.0574   -1.3769   17.9011 C.ar    1  UNL1       -0.0032
     39 C           3.8343   -0.7508   18.5026 C.ar    1  UNL1       -0.0103
     40 C           3.5030    0.6823   18.2078 C.3     1  UNL1        0.0953
     41 N           2.2799    1.3084   18.8092 N.3     1  UNL1       -0.2934
     42 H           1.7026    1.6317   18.0330 H       1  UNL1        0.1236
@<TRIPOS>BOND
     1    18    19   ar
     2    19    20   ar
     3    20    21   ar
     4    21    22   ar
     5    22    17    1
     6    17    16    1
     7    16    15    1
     8    15    14    1
     9    14    13    1
    10    13    12    1
    11    12     1    1
    12     1    31    1
    13    32    31    1
    14    32    33    1
    15    33    34    1
    16    34    35   ar
    17    35    36   ar
    18    36    37   ar
    19    37    38   ar
    20    38    39   ar
    21    39    40    1
    22    40    41    1
    23     2     1    1
    24     2     3    1
    25     3     4    1
    26     4     5    1
    27     5     6    1
    28     6     7   ar
    29     7     8   ar
    30     8     9   ar
    31     9    10   ar
    32    10    11   ar
    33    16    24    1
    34    24    25    1
    35    25    26   ar
    36    26    27   ar
    37    27    28   ar
    38    28    29   ar
    39    29    30   ar
    40    22    23   ar
    41    23    18   ar
    42    41    32    1
    43    11     2    1
    44    30    25   ar
    45    39    34   ar
    46    11     6   ar
    47    41    42    1
@<TRIPOS>MOLECULE
*****
 42 47 0 0 0
SMALL
GASTEIGER

@<TRIPOS>ATOM
      1 N         -17.4016   -5.3847   17.8171 N.3     1  UNL1       -0.2679
      2 C         -18.2678   -6.5481   17.4351 C.3     1  UNL1        0.0978
      3 C         -19.5074   -6.3247   16.6206 C.3     1  UNL1        0.0224
      4 C         -20.3737   -7.4881   16.2386 C.3     1  UNL1        0.0065
      5 C         -20.0004   -8.8750   16.6711 C.3     1  UNL1        0.0277
      6 C         -18.7609   -9.0985   17.4856 C.ar    1  UNL1       -0.0073
      7 C         -18.3876  -10.4854   17.9182 C.ar    1  UNL1       -0.0015
      8 C         -17.1480  -10.7089   18.7328 C.ar    1  UNL1        0.0203
      9 C         -16.2817   -9.5454   19.1148 C.ar    1  UNL1        0.0985
     10 N         -16.6550   -8.1585   18.6822 N.ar    1  UNL1       -0.2471
     11 C         -17.8946   -7.9350   17.8676 C.ar    1  UNL1        0.0695
     12 C         -17.7006   -4.6040   19.0625 C.3     1  UNL1        0.0725
     13 C         -18.8401   -3.6286   19.0808 C.3     1  UNL1        0.0188
     14 C         -18.5995   -2.1877   18.7405 C.3     1  UNL1        0.0188
     15 C         -17.2299   -1.7321   18.3323 C.3     1  UNL1        0.0727
     16 N         -16.2177   -1.3687   19.3780 N.3     1  UNL1       -0.2651
     17 C         -16.4305   -0.1595   20.2397 C.3     1  UNL1        0.1009
     18 C         -17.3671    3.4794   18.9625 C.ar    1  UNL1        0.0204
     19 C         -16.0331    3.9603   18.4736 C.ar    1  UNL1        0.0989
     20 N         -14.8316    3.0679   18.5733 N.ar    1  UNL1       -0.2426
     21 C         -14.9640    1.6947   19.1620 C.ar    1  UNL1        0.0959
     22 C         -16.2980    1.2138   19.6510 C.ar    1  UNL1        0.0131
     23 C         -17.4996    2.1062   19.5512 C.ar    1  UNL1        0.0002
     24 C         -14.9926   -2.2145   19.5619 C.3     1  UNL1        0.1009
     25 C         -13.7281   -1.8719   18.8312 C.ar    1  UNL1        0.0131
     26 C         -12.3971   -2.1600   19.4599 C.ar    1  UNL1        0.0002
     27 C         -11.1327   -1.8174   18.7292 C.ar    1  UNL1        0.0204
     28 C         -11.1994   -1.1869   17.3698 C.ar    1  UNL1        0.0989
     29 N         -12.5304   -0.8989   16.7411 N.ar    1  UNL1       -0.2426
     30 C         -13.7948   -1.2414   17.4718 C.ar    1  UNL1        0.0959
     31 C         -16.2362   -5.0019   16.9537 C.3     1  UNL1        0.0886
     32 C         -14.8357   -5.2040   17.4515 C.3     1  UNL1        0.0748
     33 C         -13.6704   -4.8149   16.5909 C.3     1  UNL1        0.0432
     34 C         -12.2698   -5.0170   17.0887 C.ar    1  UNL1       -0.0234
     35 C         -11.1046   -4.6278   16.2281 C.ar    1  UNL1       -0.0045
     36 C          -9.7041   -4.8299   16.7258 C.ar    1  UNL1       -0.0003
     37 C          -9.4689   -5.4212   18.0842 C.ar    1  UNL1       -0.0003
     38 C         -10.6342   -5.8103   18.9448 C.ar    1  UNL1       -0.0032
     39 C         -12.0346   -5.6082   18.4470 C.ar    1  UNL1       -0.0103
     40 C         -13.2000   -5.9973   19.3076 C.3     1  UNL1        0.0953
     41 N         -14.6005   -5.7952   18.8099 N.3     1  UNL1       -0.2934
     42 H         -15.0664   -5.1850   19.4813 H       1  UNL1        0.1236
@<TRIPOS>BOND
     1    18    19   ar
     2    19    20   ar
     3    20    21   ar
     4    21    22   ar
     5    22    17    1
     6    17    16    1
     7    16    15    1
     8    15    14    1
     9    14    13    1
    10    13    12    1
    11    12     1    1
    12     1    31    1
    13    32    31    1
    14    32    33    1
    15    33    34    1
    16    34    35   ar
    17    35    36   ar
    18    36    37   ar
    19    37    38   ar
    20    38    39   ar
    21    39    40    1
    22    40    41    1
    23     2     1    1
    24     2     3    1
    25     3     4    1
    26     4     5    1
    27     5     6    1
    28     6     7   ar
    29     7     8   ar
    30     8     9   ar
    31     9    10   ar
    32    10    11   ar
    33    16    24    1
    34    24    25    1
    35    25    26   ar
    36    26    27   ar
    37    27    28   ar
    38    28    29   ar
    39    29    30   ar
    40    22    23   ar
    41    23    18   ar
    42    41    32    1
    43    11     2    1
    44    30    25   ar
    45    39    34   ar
    46    11     6   ar
    47    41    42    1
@<TRIPOS>MOLECULE
*****
 42 47 0 0 0
SMALL
GASTEIGER

@<TRIPOS>ATOM
      1 N           5.5949   -1.8783   22.5861 N.3     1  UNL1       -0.2679
      2 C           4.9653   -2.4447   21.3480 C.3     1  UNL1        0.0978
      3 C           4.4975   -3.8697   21.3291 C.3     1  UNL1        0.0224
      4 C           3.8680   -4.4361   20.0909 C.3     1  UNL1        0.0065
      5 C           3.7063   -3.5774   18.8717 C.3     1  UNL1        0.0277
      6 C           4.1741   -2.1524   18.8907 C.ar    1  UNL1       -0.0073
      7 C           4.0124   -1.2936   17.6714 C.ar    1  UNL1       -0.0015
      8 C           4.4802    0.1314   17.6903 C.ar    1  UNL1        0.0203
      9 C           5.1097    0.6978   18.9285 C.ar    1  UNL1        0.0985
     10 N           5.2714   -0.1609   20.1477 N.ar    1  UNL1       -0.2471
     11 C           4.8036   -1.5860   20.1288 C.ar    1  UNL1        0.0695
     12 C           4.7749   -1.0559   23.5354 C.3     1  UNL1        0.0725
     13 C           4.2141   -1.6815   24.7781 C.3     1  UNL1        0.0188
     14 C           4.8318   -1.3837   26.1121 C.3     1  UNL1        0.0188
     15 C           3.9686   -1.2977   27.3358 C.3     1  UNL1        0.0727
     16 N           3.9994   -0.0651   28.1903 N.3     1  UNL1       -0.2651
     17 C           3.0210    1.0443   27.9418 C.3     1  UNL1        0.1009
     18 C          -0.9229    1.3618   27.6330 C.ar    1  UNL1        0.0204
     19 C          -1.3688    0.3795   28.6752 C.ar    1  UNL1        0.0989
     20 N          -0.3514   -0.3813   29.4729 N.ar    1  UNL1       -0.2426
     21 C           1.1118   -0.1597   29.2285 C.ar    1  UNL1        0.0959
     22 C           1.5577    0.8227   28.1863 C.ar    1  UNL1        0.0131
     23 C           0.5404    1.5834   27.3886 C.ar    1  UNL1        0.0002
     24 C           5.0086    0.0578   29.2932 C.3     1  UNL1        0.1009
     25 C           4.9081   -0.8227   30.5034 C.ar    1  UNL1        0.0131
     26 C           5.8984   -1.9303   30.7094 C.ar    1  UNL1        0.0002
     27 C           5.7978   -2.8108   31.9196 C.ar    1  UNL1        0.0204
     28 C           4.7069   -2.5837   32.9238 C.ar    1  UNL1        0.0989
     29 N           3.7165   -1.4762   32.7177 N.ar    1  UNL1       -0.2426
     30 C           3.8171   -0.5957   31.5076 C.ar    1  UNL1        0.0959
     31 C           7.0443   -2.1344   22.8749 C.3     1  UNL1        0.0886
     32 C           7.4926   -3.4976   23.3117 C.3     1  UNL1        0.0748
     33 C           7.0288   -4.0546   24.6249 C.3     1  UNL1        0.0432
     34 C           7.4771   -5.4178   25.0618 C.ar    1  UNL1       -0.0234
     35 C           7.0132   -5.9748   26.3750 C.ar    1  UNL1       -0.0045
     36 C           7.4615   -7.3379   26.8118 C.ar    1  UNL1       -0.0003
     37 C           8.3737   -8.1440   25.9354 C.ar    1  UNL1       -0.0003
     38 C           8.8376   -7.5870   24.6222 C.ar    1  UNL1       -0.0032
     39 C           8.3893   -6.2239   24.1854 C.ar    1  UNL1       -0.0103
     40 C           8.8531   -5.6668   22.8721 C.3     1  UNL1        0.0953
     41 N           8.4048   -4.3037   22.4353 N.3     1  UNL1       -0.2934
     42 H           7.9258   -4.4232   21.5428 H       1  UNL1        0.1236
@<TRIPOS>BOND
     1    18    19   ar
     2    19    20   ar
     3    20    21   ar
     4    21    22   ar
     5    22    17    1
     6    17    16    1
     7    16    15    1
     8    15    14    1
     9    14    13    1
    10    13    12    1
    11    12     1    1
    12     1    31    1
    13    32    31    1
    14    32    33    1
    15    33    34    1
    16    34    35   ar
    17    35    36   ar
    18    36    37   ar
    19    37    38   ar
    20    38    39   ar
    21    39    40    1
    22    40    41    1
    23     2     1    1
    24     2     3    1
    25     3     4    1
    26     4     5    1
    27     5     6    1
    28     6     7   ar
    29     7     8   ar
    30     8     9   ar
    31     9    10   ar
    32    10    11   ar
    33    16    24    1
    34    24    25    1
    35    25    26   ar
    36    26    27   ar
    37    27    28   ar
    38    28    29   ar
    39    29    30   ar
    40    22    23   ar
    41    23    18   ar
    42    41    32    1
    43    11     2    1
    44    30    25   ar
    45    39    34   ar
    46    11     6   ar
    47    41    42    1
@<TRIPOS>MOLECULE
*****
 42 47 0 0 0
SMALL
GASTEIGER

@<TRIPOS>ATOM
      1 N          -0.0119    2.6895   20.1119 N.3     1  UNL1       -0.2679
      2 C          -1.0072    3.2437   19.1361 C.3     1  UNL1        0.0978
      3 C          -0.5604    3.6678   17.7685 C.3     1  UNL1        0.0224
      4 C          -1.5557    4.2221   16.7927 C.3     1  UNL1        0.0065
      5 C          -2.9977    4.3522   17.1845 C.3     1  UNL1        0.0277
      6 C          -3.4445    3.9281   18.5521 C.ar    1  UNL1       -0.0073
      7 C          -4.8866    4.0583   18.9440 C.ar    1  UNL1       -0.0015
      8 C          -5.3333    3.6341   20.3117 C.ar    1  UNL1        0.0203
      9 C          -4.3380    3.0799   21.2875 C.ar    1  UNL1        0.0985
     10 N          -2.8960    2.9497   20.8957 N.ar    1  UNL1       -0.2471
     11 C          -2.4492    3.3739   19.5279 C.ar    1  UNL1        0.0695
     12 C           0.7863    3.6181   20.9782 C.3     1  UNL1        0.0725
     13 C           0.1655    4.2197   22.2041 C.3     1  UNL1        0.0188
     14 C          -0.2752    3.3353   23.3326 C.3     1  UNL1        0.0188
     15 C           0.5675    3.2199   24.5681 C.3     1  UNL1        0.0727
     16 N           1.2687    1.9311   24.8800 N.3     1  UNL1       -0.2651
     17 C           1.3381    0.8459   23.8469 C.3     1  UNL1        0.1009
     18 C           4.5226   -1.2590   22.7614 C.ar    1  UNL1        0.0204
     19 C           5.2873   -0.2331   21.9787 C.ar    1  UNL1        0.0989
     20 N           4.7355    1.1526   21.8188 N.ar    1  UNL1       -0.2426
     21 C           3.4192    1.5122   22.4415 C.ar    1  UNL1        0.0959
     22 C           2.6546    0.4863   23.2242 C.ar    1  UNL1        0.0131
     23 C           3.2063   -0.8994   23.3841 C.ar    1  UNL1        0.0002
     24 C           1.9005    1.7276   26.2252 C.3     1  UNL1        0.1009
     25 C           1.0507    1.3584   27.4049 C.ar    1  UNL1        0.0131
     26 C          -0.3933    1.0039   27.2073 C.ar    1  UNL1        0.0002
     27 C          -1.2431    0.6348   28.3870 C.ar    1  UNL1        0.0204
     28 C          -0.6488    0.6202   29.7641 C.ar    1  UNL1        0.0989
     29 N           0.7952    0.9747   29.9617 N.ar    1  UNL1       -0.2426
     30 C           1.6450    1.3439   28.7820 C.ar    1  UNL1        0.0959
     31 C           0.1852    1.2065   20.2215 C.3     1  UNL1        0.0886
     32 C           1.4046    0.5660   19.6273 C.3     1  UNL1        0.0748
     33 C           1.7481   -0.8535   19.9691 C.3     1  UNL1        0.0432
     34 C           2.9675   -1.4940   19.3750 C.ar    1  UNL1       -0.0234
     35 C           3.3111   -2.9135   19.7168 C.ar    1  UNL1       -0.0045
     36 C           4.5304   -3.5539   19.1226 C.ar    1  UNL1       -0.0003
     37 C           5.4061   -2.7748   18.1866 C.ar    1  UNL1       -0.0003
     38 C           5.0626   -1.3553   17.8448 C.ar    1  UNL1       -0.0032
     39 C           3.8432   -0.7149   18.4390 C.ar    1  UNL1       -0.0103
     40 C           3.4996    0.7047   18.0971 C.3     1  UNL1        0.0953
     41 N           2.2803    1.3451   18.6913 N.3     1  UNL1       -0.2934
     42 H           1.6914    1.6370   17.9114 H       1  UNL1        0.1236
@<TRIPOS>BOND
     1    18    19   ar
     2    19    20   ar
     3    20    21   ar
     4    21    22   ar
     5    22    17    1
     6    17    16    1
     7    16    15    1
     8    15    14    1
     9    14    13    1
    10    13    12    1
    11    12     1    1
    12     1    31    1
    13    32    31    1
    14    32    33    1
    15    33    34    1
    16    34    35   ar
    17    35    36   ar
    18    36    37   ar
    19    37    38   ar
    20    38    39   ar
    21    39    40    1
    22    40    41    1
    23     2     1    1
    24     2     3    1
    25     3     4    1
    26     4     5    1
    27     5     6    1
    28     6     7   ar
    29     7     8   ar
    30     8     9   ar
    31     9    10   ar
    32    10    11   ar
    33    16    24    1
    34    24    25    1
    35    25    26   ar
    36    26    27   ar
    37    27    28   ar
    38    28    29   ar
    39    29    30   ar
    40    22    23   ar
    41    23    18   ar
    42    41    32    1
    43    11     2    1
    44    30    25   ar
    45    39    34   ar
    46    11     6   ar
    47    41    42    1
@<TRIPOS>MOLECULE
*****
 42 47 0 0 0
SMALL
GASTEIGER

@<TRIPOS>ATOM
      1 N         -16.2426   -4.6821   19.1251 N.3     1  UNL1       -0.2679
      2 C         -17.5282   -5.4381   19.2855 C.3     1  UNL1        0.0978
      3 C         -18.8348   -4.7016   19.2974 C.3     1  UNL1        0.0224
      4 C         -20.1204   -5.4576   19.4578 C.3     1  UNL1        0.0065
      5 C         -20.0994   -6.9500   19.6063 C.3     1  UNL1        0.0277
      6 C         -18.7927   -7.6865   19.5945 C.ar    1  UNL1       -0.0073
      7 C         -18.7716   -9.1790   19.7430 C.ar    1  UNL1       -0.0015
      8 C         -17.4649   -9.9155   19.7312 C.ar    1  UNL1        0.0203
      9 C         -16.1793   -9.1595   19.5708 C.ar    1  UNL1        0.0985
     10 N         -16.2004   -7.6671   19.4222 N.ar    1  UNL1       -0.2471
     11 C         -17.5071   -6.9305   19.4341 C.ar    1  UNL1        0.0695
     12 C         -15.7386   -3.8144   20.2401 C.3     1  UNL1        0.0725
     13 C         -15.1591   -2.4645   19.9366 C.3     1  UNL1        0.0188
     14 C         -16.0563   -1.3435   19.5027 C.3     1  UNL1        0.0188
     15 C         -15.7335   -0.5610   18.2644 C.3     1  UNL1        0.0727
     16 N         -15.2185    0.8434   18.3776 N.3     1  UNL1       -0.2651
     17 C         -13.7581    1.1247   18.1826 C.3     1  UNL1        0.1009
     18 C         -11.2059   -1.8980   18.4990 C.ar    1  UNL1        0.0204
     19 C         -10.9556   -2.2101   17.0534 C.ar    1  UNL1        0.0989
     20 N         -11.6395   -1.4106   15.9841 N.ar    1  UNL1       -0.2426
     21 C         -12.5736   -0.2991   16.3605 C.ar    1  UNL1        0.0959
     22 C         -12.8239    0.0130   17.8062 C.ar    1  UNL1        0.0131
     23 C         -12.1401   -0.7864   18.8754 C.ar    1  UNL1        0.0002
     24 C         -16.1640    1.9664   18.6857 C.3     1  UNL1        0.1009
     25 C         -16.3444    2.4278   20.1016 C.ar    1  UNL1        0.0131
     26 C         -17.2343    1.6596   21.0332 C.ar    1  UNL1        0.0002
     27 C         -17.4146    2.1210   22.4490 C.ar    1  UNL1        0.0204
     28 C         -16.7050    3.3507   22.9332 C.ar    1  UNL1        0.0989
     29 N         -15.8152    4.1189   22.0016 N.ar    1  UNL1       -0.2426
     30 C         -15.6349    3.6575   20.5858 C.ar    1  UNL1        0.0959
     31 C         -15.4609   -4.7938   17.8498 C.3     1  UNL1        0.0886
     32 C         -14.2026   -5.6094   17.8103 C.3     1  UNL1        0.0748
     33 C         -12.9688   -5.1189   18.5082 C.3     1  UNL1        0.0432
     34 C         -11.7104   -5.9345   18.4687 C.ar    1  UNL1       -0.0234
     35 C         -10.4766   -5.4440   19.1666 C.ar    1  UNL1       -0.0045
     36 C          -9.2183   -6.2595   19.1270 C.ar    1  UNL1       -0.0003
     37 C          -9.1939   -7.5655   18.3897 C.ar    1  UNL1       -0.0003
     38 C         -10.4277   -8.0560   17.6918 C.ar    1  UNL1       -0.0032
     39 C         -11.6860   -7.2405   17.7313 C.ar    1  UNL1       -0.0103
     40 C         -12.9199   -7.7309   17.0335 C.3     1  UNL1        0.0953
     41 N         -14.1781   -6.9154   17.0730 N.3     1  UNL1       -0.2934
     42 H         -14.8975   -7.5041   17.4929 H       1  UNL1        0.1236
@<TRIPOS>BOND
     1    18    19   ar
     2    19    20   ar
     3    20    21   ar
     4    21    22   ar
     5    22    17    1
     6    17    16    1
     7    16    15    1
     8    15    14    1
     9    14    13    1
    10    13    12    1
    11    12     1    1
    12     1    31    1
    13    32    31    1
    14    32    33    1
    15    33    34    1
    16    34    35   ar
    17    35    36   ar
    18    36    37   ar
    19    37    38   ar
    20    38    39   ar
    21    39    40    1
    22    40    41    1
    23     2     1    1
    24     2     3    1
    25     3     4    1
    26     4     5    1
    27     5     6    1
    28     6     7   ar
    29     7     8   ar
    30     8     9   ar
    31     9    10   ar
    32    10    11   ar
    33    16    24    1
    34    24    25    1
    35    25    26   ar
    36    26    27   ar
    37    27    28   ar
    38    28    29   ar
    39    29    30   ar
    40    22    23   ar
    41    23    18   ar
    42    41    32    1
    43    11     2    1
    44    30    25   ar
    45    39    34   ar
    46    11     6   ar
    47    41    42    1
@<TRIPOS>MOLECULE
*****
 42 47 0 0 0
SMALL
GASTEIGER

@<TRIPOS>ATOM
      1 N          -7.7347  -19.3323   21.7251 N.3     1  UNL1       -0.2679
      2 C          -8.3779  -19.0207   23.0439 C.3     1  UNL1        0.0978
      3 C          -9.2477  -20.0425   23.7141 C.3     1  UNL1        0.0224
      4 C          -9.8909  -19.7310   25.0329 C.3     1  UNL1        0.0065
      5 C          -9.6643  -18.3976   25.6815 C.3     1  UNL1        0.0277
      6 C          -8.7945  -17.3757   25.0112 C.ar    1  UNL1       -0.0073
      7 C          -8.5678  -16.0423   25.6598 C.ar    1  UNL1       -0.0015
      8 C          -7.6980  -15.0205   24.9895 C.ar    1  UNL1        0.0203
      9 C          -7.0548  -15.3320   23.6707 C.ar    1  UNL1        0.0985
     10 N          -7.2814  -16.6654   23.0222 N.ar    1  UNL1       -0.2471
     11 C          -8.1513  -17.6873   23.6924 C.ar    1  UNL1        0.0695
     12 C          -8.3950  -18.9028   20.4485 C.3     1  UNL1        0.0725
     13 C          -9.3041  -19.8475   19.7197 C.3     1  UNL1        0.0188
     14 C         -10.7905  -19.6559   19.7818 C.3     1  UNL1        0.0188
     15 C         -11.4682  -19.4726   21.1073 C.3     1  UNL1        0.0727
     16 N         -11.8302  -18.0960   21.5807 N.3     1  UNL1       -0.2651
     17 C         -11.8782  -17.7964   23.0497 C.3     1  UNL1        0.1009
     18 C         -15.6699  -18.5400   23.9553 C.ar    1  UNL1        0.0204
     19 C         -15.5647  -18.7934   25.4299 C.ar    1  UNL1        0.0989
     20 N         -14.2307  -18.7145   26.1112 N.ar    1  UNL1       -0.2426
     21 C         -13.0019  -18.3821   25.3178 C.ar    1  UNL1        0.0959
     22 C         -13.1071  -18.1288   23.8431 C.ar    1  UNL1        0.0131
     23 C         -14.4411  -18.2077   23.1619 C.ar    1  UNL1        0.0002
     24 C         -12.1442  -17.0190   20.5850 C.3     1  UNL1        0.1009
     25 C         -11.1241  -15.9639   20.2746 C.ar    1  UNL1        0.0131
     26 C         -10.1105  -15.5734   21.3090 C.ar    1  UNL1        0.0002
     27 C          -9.0904  -14.5184   20.9986 C.ar    1  UNL1        0.0204
     28 C          -9.0839  -13.8540   19.6537 C.ar    1  UNL1        0.0989
     29 N         -10.0975  -14.2446   18.6193 N.ar    1  UNL1       -0.2426
     30 C         -11.1176  -15.2995   18.9298 C.ar    1  UNL1        0.0959
     31 C          -6.4312  -20.0733   21.6828 C.3     1  UNL1        0.0886
     32 C          -5.1395  -19.3148   21.6040 C.3     1  UNL1        0.0748
     33 C          -4.3516  -19.3059   20.3277 C.3     1  UNL1        0.0432
     34 C          -3.0598  -18.5474   20.2489 C.ar    1  UNL1       -0.0234
     35 C          -2.2720  -18.5385   18.9726 C.ar    1  UNL1       -0.0045
     36 C          -0.9803  -17.7800   18.8939 C.ar    1  UNL1       -0.0003
     37 C          -0.4765  -17.0305   20.0915 C.ar    1  UNL1       -0.0003
     38 C          -1.2643  -17.0394   21.3679 C.ar    1  UNL1       -0.0032
     39 C          -2.5560  -17.7979   21.4466 C.ar    1  UNL1       -0.0103
     40 C          -3.3440  -17.8068   22.7230 C.3     1  UNL1        0.0953
     41 N          -4.6357  -18.5653   22.8017 N.3     1  UNL1       -0.2934
     42 H          -5.3585  -17.8906   23.0523 H       1  UNL1        0.1236
@<TRIPOS>BOND
     1    18    19   ar
     2    19    20   ar
     3    20    21   ar
     4    21    22   ar
     5    22    17    1
     6    17    16    1
     7    16    15    1
     8    15    14    1
     9    14    13    1
    10    13    12    1
    11    12     1    1
    12     1    31    1
    13    32    31    1
    14    32    33    1
    15    33    34    1
    16    34    35   ar
    17    35    36   ar
    18    36    37   ar
    19    37    38   ar
    20    38    39   ar
    21    39    40    1
    22    40    41    1
    23     2     1    1
    24     2     3    1
    25     3     4    1
    26     4     5    1
    27     5     6    1
    28     6     7   ar
    29     7     8   ar
    30     8     9   ar
    31     9    10   ar
    32    10    11   ar
    33    16    24    1
    34    24    25    1
    35    25    26   ar
    36    26    27   ar
    37    27    28   ar
    38    28    29   ar
    39    29    30   ar
    40    22    23   ar
    41    23    18   ar
    42    41    32    1
    43    11     2    1
    44    30    25   ar
    45    39    34   ar
    46    11     6   ar
    47    41    42    1
