@<TRIPOS>MOLECULE
*****
 21 23 0 0 0
SMALL
GASTEIGER

@<TRIPOS>ATOM
      1 N          -2.0867  -17.8062   22.7519 N.3     1  UNL1       -0.3187
      2 C          -3.5859  -17.8506   22.7298 C.3     1  UNL1        0.0765
      3 C          -4.3771  -16.8919   23.5692 C.3     1  UNL1        0.0418
      4 C          -5.8763  -16.9363   23.5471 C.3     1  UNL1        0.0973
      5 N          -6.5842  -17.9395   22.6855 N.pl3   1  UNL1       -0.2870
      6 C          -5.7930  -18.8983   21.8460 C.ar    1  UNL1        0.0488
      7 C          -6.5010  -19.9015   20.9844 C.ar    1  UNL1        0.0146
      8 C          -5.7098  -20.8602   20.1450 C.ar    1  UNL1        0.0013
      9 C          -4.2106  -20.8158   20.1671 C.ar    1  UNL1       -0.0002
     10 C          -3.5026  -19.8126   21.0287 C.ar    1  UNL1       -0.0018
     11 C          -4.2938  -18.8539   21.8681 C.ar    1  UNL1        0.0055
     12 H          -1.7777  -17.0699   23.3866 H       1  UNL1        0.1191
     13 H          -1.7384  -17.6138   21.8127 H       1  UNL1        0.1191
     14 C          -8.0834  -17.9839   22.6634 C.ar    1  UNL1        0.0525
     15 C          -8.8108  -19.1017   23.3498 C.ar    1  UNL1        0.0157
     16 C         -10.3100  -19.1462   23.3277 C.ar    1  UNL1        0.0135
     17 C         -11.0818  -18.0727   22.6192 C.ar    1  UNL1        0.0683
     18 CL        -12.5810  -18.1172   22.5971 Cl      1  UNL1       -0.0814
     19 C         -10.3544  -16.9548   21.9327 C.ar    1  UNL1        0.0694
     20 CL        -11.1261  -15.8814   21.2241 Cl      1  UNL1       -0.0813
     21 C          -8.8552  -16.9104   21.9548 C.ar    1  UNL1        0.0271
@<TRIPOS>BOND
     1     2     1    1
     2     2     3    1
     3     3     4    1
     4     4     5    1
     5     5    14    1
     6    14    15   ar
     7    15    16   ar
     8    16    17   ar
     9    17    18    1
    10    17    19   ar
    11    19    20    1
    12    19    21   ar
    13     5     6    1
    14     6     7   ar
    15     7     8   ar
    16     8     9   ar
    17     9    10   ar
    18    10    11   ar
    19    11     2    1
    20    21    14   ar
    21    11     6   ar
    22     1    12    1
    23     1    13    1
@<TRIPOS>MOLECULE
*****
 21 23 0 0 0
SMALL
GASTEIGER

@<TRIPOS>ATOM
      1 N          -3.5048  -19.0238   22.0568 N.3     1  UNL1       -0.3187
      2 C          -4.9789  -18.8740   22.2910 C.3     1  UNL1        0.0765
      3 C          -5.9226  -19.9504   21.8430 C.3     1  UNL1        0.0418
      4 C          -7.3966  -19.8006   22.0772 C.3     1  UNL1        0.0973
      5 N          -7.9269  -18.5745   22.7593 N.pl3   1  UNL1       -0.2870
      6 C          -6.9832  -17.4981   23.2073 C.ar    1  UNL1        0.0488
      7 C          -7.5134  -16.2719   23.8895 C.ar    1  UNL1        0.0146
      8 C          -6.5697  -15.1956   24.3375 C.ar    1  UNL1        0.0013
      9 C          -5.0957  -15.3453   24.1033 C.ar    1  UNL1       -0.0002
     10 C          -4.5654  -16.5714   23.4212 C.ar    1  UNL1       -0.0018
     11 C          -5.5091  -17.6478   22.9732 C.ar    1  UNL1        0.0055
     12 H          -3.3238  -19.9100   21.5854 H       1  UNL1        0.1191
     13 H          -3.0151  -19.0083   22.9515 H       1  UNL1        0.1191
     14 C          -9.4009  -18.4248   22.9935 C.ar    1  UNL1        0.0525
     15 C         -10.0174  -18.9530   24.2548 C.ar    1  UNL1        0.0157
     16 C         -11.4915  -18.8032   24.4889 C.ar    1  UNL1        0.0135
     17 C         -12.3490  -18.1253   23.4618 C.ar    1  UNL1        0.0683
     18 CL        -13.8230  -17.9755   23.6960 Cl      1  UNL1       -0.0814
     19 C         -11.7325  -17.5970   22.2005 C.ar    1  UNL1        0.0694
     20 CL        -12.5900  -16.9191   21.1733 Cl      1  UNL1       -0.0813
     21 C         -10.2584  -17.7468   21.9663 C.ar    1  UNL1        0.0271
@<TRIPOS>BOND
     1     2     1    1
     2     2     3    1
     3     3     4    1
     4     4     5    1
     5     5    14    1
     6    14    15   ar
     7    15    16   ar
     8    16    17   ar
     9    17    18    1
    10    17    19   ar
    11    19    20    1
    12    19    21   ar
    13     5     6    1
    14     6     7   ar
    15     7     8   ar
    16     8     9   ar
    17     9    10   ar
    18    10    11   ar
    19    11     2    1
    20    21    14   ar
    21    11     6   ar
    22     1    12    1
    23     1    13    1
@<TRIPOS>MOLECULE
*****
 21 23 0 0 0
SMALL
GASTEIGER

@<TRIPOS>ATOM
      1 N         -11.2221   -1.9851   19.1386 N.3     1  UNL1       -0.3187
      2 C         -12.0570   -3.2275   19.0409 C.3     1  UNL1        0.0765
      3 C         -13.5528   -3.1245   18.9989 C.3     1  UNL1        0.0418
      4 C         -14.3876   -4.3669   18.9012 C.3     1  UNL1        0.0973
      5 N         -13.7267   -5.7122   18.8456 N.pl3   1  UNL1       -0.2870
      6 C         -12.2307   -5.8153   18.8876 C.ar    1  UNL1        0.0488
      7 C         -11.5698   -7.1606   18.8320 C.ar    1  UNL1        0.0146
      8 C         -10.0739   -7.2635   18.8740 C.ar    1  UNL1        0.0013
      9 C          -9.2391   -6.0212   18.9716 C.ar    1  UNL1       -0.0002
     10 C          -9.9000   -4.6759   19.0273 C.ar    1  UNL1       -0.0018
     11 C         -11.3959   -4.5729   18.9853 C.ar    1  UNL1        0.0055
     12 H         -11.8312   -1.1674   19.1657 H       1  UNL1        0.1191
     13 H         -10.6071   -1.9241   18.3271 H       1  UNL1        0.1191
     14 C         -14.5615   -6.9546   18.7479 C.ar    1  UNL1        0.0525
     15 C         -14.1440   -8.0689   17.8347 C.ar    1  UNL1        0.0157
     16 C         -14.9789   -9.3113   17.7371 C.ar    1  UNL1        0.0135
     17 C         -16.2312   -9.4393   18.5526 C.ar    1  UNL1        0.0683
     18 CL        -17.0661  -10.6817   18.4550 Cl      1  UNL1       -0.0814
     19 C         -16.6488   -8.3250   19.4659 C.ar    1  UNL1        0.0694
     20 CL        -17.9011   -8.4531   20.2815 Cl      1  UNL1       -0.0813
     21 C         -15.8139   -7.0826   19.5636 C.ar    1  UNL1        0.0271
@<TRIPOS>BOND
     1     2     1    1
     2     2     3    1
     3     3     4    1
     4     4     5    1
     5     5    14    1
     6    14    15   ar
     7    15    16   ar
     8    16    17   ar
     9    17    18    1
    10    17    19   ar
    11    19    20    1
    12    19    21   ar
    13     5     6    1
    14     6     7   ar
    15     7     8   ar
    16     8     9   ar
    17     9    10   ar
    18    10    11   ar
    19    11     2    1
    20    21    14   ar
    21    11     6   ar
    22     1    12    1
    23     1    13    1
@<TRIPOS>MOLECULE
*****
 21 23 0 0 0
SMALL
GASTEIGER

@<TRIPOS>ATOM
      1 N          -9.5548   -3.8900   19.2932 N.3     1  UNL1       -0.3187
      2 C         -10.8327   -4.6280   19.0242 C.3     1  UNL1        0.0765
      3 C         -10.8234   -6.1226   18.8984 C.3     1  UNL1        0.0418
      4 C         -12.1013   -6.8606   18.6295 C.3     1  UNL1        0.0973
      5 N         -13.3885   -6.1039   18.4863 N.pl3   1  UNL1       -0.2870
      6 C         -13.3979   -4.6092   18.6120 C.ar    1  UNL1        0.0488
      7 C         -14.6850   -3.8525   18.4688 C.ar    1  UNL1        0.0146
      8 C         -14.6943   -2.3578   18.5945 C.ar    1  UNL1        0.0013
      9 C         -13.4164   -1.6199   18.8635 C.ar    1  UNL1       -0.0002
     10 C         -12.1292   -2.3765   19.0067 C.ar    1  UNL1       -0.0018
     11 C         -12.1200   -3.8712   18.8810 C.ar    1  UNL1        0.0055
     12 H          -8.7853   -4.5560   19.3606 H       1  UNL1        0.1191
     13 H          -9.6373   -3.3758   20.1702 H       1  UNL1        0.1191
     14 C         -14.6664   -6.8419   18.2173 C.ar    1  UNL1        0.0525
     15 C         -15.0592   -7.1726   16.8079 C.ar    1  UNL1        0.0157
     16 C         -16.3371   -7.9106   16.5390 C.ar    1  UNL1        0.0135
     17 C         -17.2222   -8.3179   17.6794 C.ar    1  UNL1        0.0683
     18 CL        -18.5001   -9.0559   17.4104 Cl      1  UNL1       -0.0814
     19 C         -16.8295   -7.9872   19.0888 C.ar    1  UNL1        0.0694
     20 CL        -17.7147   -8.3944   20.2292 Cl      1  UNL1       -0.0813
     21 C         -15.5516   -7.2492   19.3578 C.ar    1  UNL1        0.0271
@<TRIPOS>BOND
     1     2     1    1
     2     2     3    1
     3     3     4    1
     4     4     5    1
     5     5    14    1
     6    14    15   ar
     7    15    16   ar
     8    16    17   ar
     9    17    18    1
    10    17    19   ar
    11    19    20    1
    12    19    21   ar
    13     5     6    1
    14     6     7   ar
    15     7     8   ar
    16     8     9   ar
    17     9    10   ar
    18    10    11   ar
    19    11     2    1
    20    21    14   ar
    21    11     6   ar
    22     1    12    1
    23     1    13    1
@<TRIPOS>MOLECULE
*****
 21 23 0 0 0
SMALL
GASTEIGER

@<TRIPOS>ATOM
      1 N          -9.9123   -5.3782   17.6576 N.3     1  UNL1       -0.3187
      2 C         -11.2380   -6.0796   17.6369 C.3     1  UNL1        0.0765
      3 C         -11.4351   -7.2853   16.7666 C.3     1  UNL1        0.0418
      4 C         -12.7608   -7.9868   16.7459 C.3     1  UNL1        0.0973
      5 N         -13.8894   -7.4826   17.5954 N.pl3   1  UNL1       -0.2870
      6 C         -13.6924   -6.2768   18.4658 C.ar    1  UNL1        0.0488
      7 C         -14.8211   -5.7726   19.3154 C.ar    1  UNL1        0.0146
      8 C         -14.6240   -4.5669   20.1856 C.ar    1  UNL1        0.0013
      9 C         -13.2983   -3.8655   20.2064 C.ar    1  UNL1       -0.0002
     10 C         -12.1697   -4.3697   19.3568 C.ar    1  UNL1       -0.0018
     11 C         -12.3667   -5.5754   18.4865 C.ar    1  UNL1        0.0055
     12 H          -9.2670   -5.8521   17.0257 H       1  UNL1        0.1191
     13 H          -9.5340   -5.3941   18.6047 H       1  UNL1        0.1191
     14 C         -15.2152   -8.1840   17.5747 C.ar    1  UNL1        0.0525
     15 C         -16.3735   -7.5770   16.8401 C.ar    1  UNL1        0.0157
     16 C         -17.6992   -8.2784   16.8194 C.ar    1  UNL1        0.0135
     17 C         -17.8666   -9.5870   17.5333 C.ar    1  UNL1        0.0683
     18 CL        -19.1923  -10.2884   17.5126 Cl      1  UNL1       -0.0814
     19 C         -16.7082  -10.1941   18.2680 C.ar    1  UNL1        0.0694
     20 CL        -16.8756  -11.5026   18.9819 Cl      1  UNL1       -0.0813
     21 C         -15.3825   -9.4926   18.2887 C.ar    1  UNL1        0.0271
@<TRIPOS>BOND
     1     2     1    1
     2     2     3    1
     3     3     4    1
     4     4     5    1
     5     5    14    1
     6    14    15   ar
     7    15    16   ar
     8    16    17   ar
     9    17    18    1
    10    17    19   ar
    11    19    20    1
    12    19    21   ar
    13     5     6    1
    14     6     7   ar
    15     7     8   ar
    16     8     9   ar
    17     9    10   ar
    18    10    11   ar
    19    11     2    1
    20    21    14   ar
    21    11     6   ar
    22     1    12    1
    23     1    13    1
@<TRIPOS>MOLECULE
*****
 21 23 0 0 0
SMALL
GASTEIGER

@<TRIPOS>ATOM
      1 N           3.9110   -1.2890   16.3570 N.3     1  UNL1       -0.3187
      2 C           3.7431   -0.8602   17.7846 C.3     1  UNL1        0.0765
      3 C           3.3943    0.5632   18.1042 C.3     1  UNL1        0.0418
      4 C           3.2264    0.9919   19.5317 C.3     1  UNL1        0.0973
      5 N           3.4074   -0.0028   20.6398 N.pl3   1  UNL1       -0.2870
      6 C           3.7563   -1.4263   20.3203 C.ar    1  UNL1        0.0488
      7 C           3.9372   -2.4210   21.4283 C.ar    1  UNL1        0.0146
      8 C           4.2861   -3.8444   21.1088 C.ar    1  UNL1        0.0013
      9 C           4.4540   -4.2731   19.6812 C.ar    1  UNL1       -0.0002
     10 C           4.2730   -3.2784   18.5732 C.ar    1  UNL1       -0.0018
     11 C           3.9241   -1.8550   18.8927 C.ar    1  UNL1        0.0055
     12 H           3.7529   -0.4911   15.7416 H       1  UNL1        0.1191
     13 H           3.2372   -2.0236   16.1412 H       1  UNL1        0.1191
     14 C           3.2395    0.4260   22.0674 C.ar    1  UNL1        0.0525
     15 C           4.4405    0.8006   22.8841 C.ar    1  UNL1        0.0157
     16 C           4.2726    1.2293   24.3117 C.ar    1  UNL1        0.0135
     17 C           2.9037    1.2834   24.9226 C.ar    1  UNL1        0.0683
     18 CL          2.7358    1.7122   26.3501 Cl      1  UNL1       -0.0814
     19 C           1.7026    0.9088   24.1058 C.ar    1  UNL1        0.0694
     20 CL          0.3337    0.9629   24.7166 Cl      1  UNL1       -0.0813
     21 C           1.8705    0.4800   22.6782 C.ar    1  UNL1        0.0271
@<TRIPOS>BOND
     1     2     1    1
     2     2     3    1
     3     3     4    1
     4     4     5    1
     5     5    14    1
     6    14    15   ar
     7    15    16   ar
     8    16    17   ar
     9    17    18    1
    10    17    19   ar
    11    19    20    1
    12    19    21   ar
    13     5     6    1
    14     6     7   ar
    15     7     8   ar
    16     8     9   ar
    17     9    10   ar
    18    10    11   ar
    19    11     2    1
    20    21    14   ar
    21    11     6   ar
    22     1    12    1
    23     1    13    1
@<TRIPOS>MOLECULE
*****
 21 23 0 0 0
SMALL
GASTEIGER

@<TRIPOS>ATOM
      1 N           5.3002   -3.1659   24.3577 N.3     1  UNL1       -0.3187
      2 C           4.5062   -2.2438   23.4806 C.3     1  UNL1        0.0765
      3 C           3.9878   -0.9478   24.0297 C.3     1  UNL1        0.0418
      4 C           3.1938   -0.0258   23.1526 C.3     1  UNL1        0.0973
      5 N           2.9181   -0.3997   21.7264 N.pl3   1  UNL1       -0.2870
      6 C           3.4365   -1.6958   21.1772 C.ar    1  UNL1        0.0488
      7 C           3.1609   -2.0698   19.7510 C.ar    1  UNL1        0.0146
      8 C           3.6793   -3.3658   19.2019 C.ar    1  UNL1        0.0013
      9 C           4.4734   -4.2879   20.0790 C.ar    1  UNL1       -0.0002
     10 C           4.7490   -3.9139   21.5052 C.ar    1  UNL1       -0.0018
     11 C           4.2306   -2.6179   22.0543 C.ar    1  UNL1        0.0055
     12 H           5.3903   -2.7567   25.2877 H       1  UNL1        0.1191
     13 H           6.2274   -3.3033   23.9554 H       1  UNL1        0.1191
     14 C           2.1241    0.5223   20.8492 C.ar    1  UNL1        0.0525
     15 C           0.6261    0.4456   20.8421 C.ar    1  UNL1        0.0157
     16 C          -0.1679    1.3677   19.9650 C.ar    1  UNL1        0.0135
     17 C           0.5360    2.3664   19.0950 C.ar    1  UNL1        0.0683
     18 CL         -0.2580    3.2884   18.2179 Cl      1  UNL1       -0.0814
     19 C           2.0341    2.4431   19.1021 C.ar    1  UNL1        0.0694
     20 CL          2.7381    3.4418   18.2320 Cl      1  UNL1       -0.0813
     21 C           2.8281    1.5210   19.9792 C.ar    1  UNL1        0.0271
@<TRIPOS>BOND
     1     2     1    1
     2     2     3    1
     3     3     4    1
     4     4     5    1
     5     5    14    1
     6    14    15   ar
     7    15    16   ar
     8    16    17   ar
     9    17    18    1
    10    17    19   ar
    11    19    20    1
    12    19    21   ar
    13     5     6    1
    14     6     7   ar
    15     7     8   ar
    16     8     9   ar
    17     9    10   ar
    18    10    11   ar
    19    11     2    1
    20    21    14   ar
    21    11     6   ar
    22     1    12    1
    23     1    13    1
@<TRIPOS>MOLECULE
*****
 21 23 0 0 0
SMALL
GASTEIGER

@<TRIPOS>ATOM
      1 N           8.3074   -2.4121   18.8113 N.3     1  UNL1       -0.3187
      2 C           6.9859   -1.7389   19.0365 C.3     1  UNL1        0.0765
      3 C           6.9222   -0.2502   19.2087 C.3     1  UNL1        0.0418
      4 C           5.6008    0.4229   19.4340 C.3     1  UNL1        0.0973
      5 N           4.3431   -0.3927   19.4870 N.pl3   1  UNL1       -0.2870
      6 C           4.4067   -1.8815   19.3148 C.ar    1  UNL1        0.0488
      7 C           3.1489   -2.6970   19.3678 C.ar    1  UNL1        0.0146
      8 C           3.2126   -4.1857   19.1956 C.ar    1  UNL1        0.0013
      9 C           4.5341   -4.8588   18.9704 C.ar    1  UNL1       -0.0002
     10 C           5.7918   -4.0433   18.9173 C.ar    1  UNL1       -0.0018
     11 C           5.7281   -2.5546   19.0895 C.ar    1  UNL1        0.0055
     12 H           9.0489   -1.7117   18.8043 H       1  UNL1        0.1191
     13 H           8.2921   -2.9000   17.9156 H       1  UNL1        0.1191
     14 C           3.0216    0.2804   19.7123 C.ar    1  UNL1        0.0525
     15 C           2.2297    0.7880   18.5439 C.ar    1  UNL1        0.0157
     16 C           0.9083    1.4611   18.7692 C.ar    1  UNL1        0.0135
     17 C           0.3788    1.6267   20.1628 C.ar    1  UNL1        0.0683
     18 CL         -0.9426    2.2998   20.3880 Cl      1  UNL1       -0.0814
     19 C           1.1707    1.1191   21.3312 C.ar    1  UNL1        0.0694
     20 CL          0.6413    1.2846   22.7249 Cl      1  UNL1       -0.0813
     21 C           2.4922    0.4459   21.1060 C.ar    1  UNL1        0.0271
@<TRIPOS>BOND
     1     2     1    1
     2     2     3    1
     3     3     4    1
     4     4     5    1
     5     5    14    1
     6    14    15   ar
     7    15    16   ar
     8    16    17   ar
     9    17    18    1
    10    17    19   ar
    11    19    20    1
    12    19    21   ar
    13     5     6    1
    14     6     7   ar
    15     7     8   ar
    16     8     9   ar
    17     9    10   ar
    18    10    11   ar
    19    11     2    1
    20    21    14   ar
    21    11     6   ar
    22     1    12    1
    23     1    13    1
@<TRIPOS>MOLECULE
*****
 21 23 0 0 0
SMALL
GASTEIGER

@<TRIPOS>ATOM
      1 N           6.2208   -3.5874   26.5193 N.3     1  UNL1       -0.3187
      2 C           6.0929   -3.1071   27.9346 C.3     1  UNL1        0.0765
      3 C           5.4900   -1.7635   28.2190 C.3     1  UNL1        0.0418
      4 C           5.3621   -1.2832   29.6343 C.3     1  UNL1        0.0973
      5 N           5.8371   -2.1467   30.7651 N.pl3   1  UNL1       -0.2870
      6 C           6.4401   -3.4904   30.4807 C.ar    1  UNL1        0.0488
      7 C           6.9151   -4.3539   31.6115 C.ar    1  UNL1        0.0146
      8 C           7.5180   -5.6976   31.3270 C.ar    1  UNL1        0.0013
      9 C           7.6459   -6.1778   29.9117 C.ar    1  UNL1       -0.0002
     10 C           7.1709   -5.3144   28.7809 C.ar    1  UNL1       -0.0018
     11 C           6.5680   -3.9707   29.0654 C.ar    1  UNL1        0.0055
     12 H           5.8508   -2.8793   25.8852 H       1  UNL1        0.1191
     13 H           5.6948   -4.4539   26.4054 H       1  UNL1        0.1191
     14 C           5.7092   -1.6664   32.1804 C.ar    1  UNL1        0.0525
     15 C           4.4501   -1.9310   32.9513 C.ar    1  UNL1        0.0157
     16 C           4.3222   -1.4508   34.3666 C.ar    1  UNL1        0.0135
     17 C           5.4535   -0.7059   35.0110 C.ar    1  UNL1        0.0683
     18 CL          5.3256   -0.2257   36.4262 Cl      1  UNL1       -0.0814
     19 C           6.7128   -0.4413   34.2400 C.ar    1  UNL1        0.0694
     20 CL          7.8441    0.3036   34.8844 Cl      1  UNL1       -0.0813
     21 C           6.8407   -0.9215   32.8248 C.ar    1  UNL1        0.0271
@<TRIPOS>BOND
     1     2     1    1
     2     2     3    1
     3     3     4    1
     4     4     5    1
     5     5    14    1
     6    14    15   ar
     7    15    16   ar
     8    16    17   ar
     9    17    18    1
    10    17    19   ar
    11    19    20    1
    12    19    21   ar
    13     5     6    1
    14     6     7   ar
    15     7     8   ar
    16     8     9   ar
    17     9    10   ar
    18    10    11   ar
    19    11     2    1
    20    21    14   ar
    21    11     6   ar
    22     1    12    1
    23     1    13    1
