@<TRIPOS>MOLECULE
*****
 35 39 0 0 0
SMALL
GASTEIGER

@<TRIPOS>ATOM
      1 C          -0.7438    2.6771   26.7665 C.ar    1  UNL1        0.0007
      2 C          -1.2829    1.3780   27.2878 C.ar    1  UNL1       -0.0027
      3 C          -0.7381    0.7957   28.5582 C.ar    1  UNL1       -0.0026
      4 C          -1.2771   -0.5034   29.0795 C.3     1  UNL1        0.0327
      5 C           0.3459    1.5125   29.3074 C.ar    1  UNL1        0.0996
      6 N           0.8907    0.9303   30.5779 N.ar    1  UNL1       -0.2111
      7 C           1.9746    1.6471   31.3271 C.ar    1  UNL1        0.2398
      8 N           2.5136    2.9462   30.8058 N.ar    1  UNL1       -0.1123
      9 N           1.9688    3.5285   29.5353 N.ar    1  UNL1       -0.1437
     10 C           0.8849    2.8116   28.7862 C.ar    1  UNL1        0.1203
     11 C           0.3400    3.3939   27.5156 C.ar    1  UNL1        0.0224
     12 C           0.5270    1.9924   24.1366 C.3     1  UNL1        0.0310
     13 C          -0.6533    2.9170   24.1811 C.ar    1  UNL1       -0.0221
     14 C          -1.1982    3.4993   22.9106 C.ar    1  UNL1       -0.0043
     15 C          -2.3785    4.4239   22.9551 C.ar    1  UNL1       -0.0006
     16 C          -3.0139    4.7662   24.2700 C.ar    1  UNL1       -0.0043
     17 C          -2.4690    4.1839   25.5404 C.ar    1  UNL1       -0.0221
     18 C          -3.1045    4.5263   26.8554 C.3     1  UNL1        0.0310
     19 C          -1.2887    3.2593   25.4960 C.ar    1  UNL1       -0.0079
     20 N           2.5195    1.0648   32.5976 N.pl3   1  UNL1       -0.2813
     21 H           2.2122    1.4079   33.4677 H       1  UNL1        0.1551
     22 C           3.5324   -0.0401   32.5422 C.ar    1  UNL1        0.0507
     23 C           3.9177   -0.7679   33.7961 C.ar    1  UNL1        0.0178
     24 C           4.9307   -1.8727   33.7407 C.ar    1  UNL1        0.0382
     25 C           5.5584   -2.2498   32.4316 C.ar    1  UNL1        0.1387
     26 C           5.1732   -1.5220   31.1778 C.ar    1  UNL1        0.0382
     27 C           4.1602   -0.4171   31.2332 C.ar    1  UNL1        0.0178
     28 O           6.5714   -3.3547   32.3762 O.3     1  UNL1       -0.4740
     29 C           7.0601   -3.8585   31.0505 C.3     1  UNL1        0.2226
     30 C           6.8857   -5.3032   30.6866 C.3     1  UNL1        0.1200
     31 N           7.0287   -5.7395   29.2586 N.3     1  UNL1       -0.2696
     32 C           6.1911   -5.2716   28.1056 C.3     1  UNL1        0.0722
     33 C           6.6792   -5.9632   26.8673 C.3     1  UNL1        0.0188
     34 C           7.8185   -6.8586   27.2550 C.3     1  UNL1        0.0188
     35 C           8.0345   -6.7203   28.7329 C.3     1  UNL1        0.0722
@<TRIPOS>BOND
     1    12    13    1
     2    13    14   ar
     3    14    15   ar
     4    15    16   ar
     5    16    17   ar
     6    17    18    1
     7    17    19   ar
     8    19     1    1
     9     1     2   ar
    10     2     3   ar
    11     3     4    1
    12     3     5   ar
    13     5     6   ar
    14     6     7   ar
    15     7    20    1
    16    20    22    1
    17    22    23   ar
    18    23    24   ar
    19    24    25   ar
    20    25    28    1
    21    28    29    1
    22    29    30    1
    23    30    31    1
    24    31    32    1
    25    32    33    1
    26    33    34    1
    27    34    35    1
    28    25    26   ar
    29    26    27   ar
    30     7     8   ar
    31     8     9   ar
    32     9    10   ar
    33    10    11   ar
    34    19    13   ar
    35    11     1   ar
    36    10     5   ar
    37    27    22   ar
    38    35    31    1
    39    20    21    1
@<TRIPOS>MOLECULE
*****
 35 39 0 0 0
SMALL
GASTEIGER

@<TRIPOS>ATOM
      1 C           3.4795   -0.4803   19.8185 C.ar    1  UNL1        0.0007
      2 C           3.1590   -1.8341   19.2577 C.ar    1  UNL1       -0.0027
      3 C           3.9823   -3.0239   19.6533 C.ar    1  UNL1       -0.0026
      4 C           3.6618   -4.3777   19.0925 C.3     1  UNL1        0.0327
      5 C           5.1262   -2.8599   20.6098 C.ar    1  UNL1        0.0996
      6 N           5.9495   -4.0497   21.0054 N.ar    1  UNL1       -0.2111
      7 C           7.0933   -3.8856   21.9619 C.ar    1  UNL1        0.2398
      8 N           7.4137   -2.5318   22.5227 N.ar    1  UNL1       -0.1123
      9 N           6.5904   -1.3420   22.1270 N.ar    1  UNL1       -0.1437
     10 C           5.4467   -1.5061   21.1706 C.ar    1  UNL1        0.1203
     11 C           4.6233   -0.3163   20.7749 C.ar    1  UNL1        0.0224
     12 C           0.6083   -0.2936   20.6678 C.3     1  UNL1        0.0310
     13 C           1.2206    0.8029   19.8474 C.ar    1  UNL1       -0.0221
     14 C           0.3973    1.9926   19.4517 C.ar    1  UNL1       -0.0043
     15 C           1.0096    3.0890   18.6314 C.ar    1  UNL1       -0.0006
     16 C           2.4452    2.9957   18.2067 C.ar    1  UNL1       -0.0043
     17 C           3.2684    1.8059   18.6024 C.ar    1  UNL1       -0.0221
     18 C           4.7041    1.7125   18.1777 C.3     1  UNL1        0.0310
     19 C           2.6561    0.7095   19.4228 C.ar    1  UNL1       -0.0079
     20 N           7.9166   -5.0754   22.3576 N.pl3   1  UNL1       -0.2813
     21 H           8.5124   -5.5024   21.7003 H       1  UNL1        0.1551
     22 C           7.8322   -5.6147   23.7547 C.ar    1  UNL1        0.0507
     23 C           7.1388   -4.8230   24.8236 C.ar    1  UNL1        0.0178
     24 C           7.0544   -5.3623   26.2208 C.ar    1  UNL1        0.0382
     25 C           7.6634   -6.6933   26.5490 C.ar    1  UNL1        0.1387
     26 C           8.3568   -7.4849   25.4802 C.ar    1  UNL1        0.0382
     27 C           8.4412   -6.9456   24.0830 C.ar    1  UNL1        0.0178
     28 O           7.5790   -7.2326   27.9462 O.3     1  UNL1       -0.4740
     29 C           8.0423   -6.3963   29.1022 C.3     1  UNL1        0.2226
     30 C           7.0384   -5.7536   30.0127 C.3     1  UNL1        0.1200
     31 N           7.4529   -4.6231   30.9072 N.3     1  UNL1       -0.2696
     32 C           6.5305   -3.6816   31.6232 C.3     1  UNL1        0.0722
     33 C           7.3701   -2.7123   32.4013 C.3     1  UNL1        0.0188
     34 C           8.8114   -3.0547   32.1662 C.3     1  UNL1        0.0188
     35 C           8.8626   -4.2357   31.2428 C.3     1  UNL1        0.0722
@<TRIPOS>BOND
     1    12    13    1
     2    13    14   ar
     3    14    15   ar
     4    15    16   ar
     5    16    17   ar
     6    17    18    1
     7    17    19   ar
     8    19     1    1
     9     1     2   ar
    10     2     3   ar
    11     3     4    1
    12     3     5   ar
    13     5     6   ar
    14     6     7   ar
    15     7    20    1
    16    20    22    1
    17    22    23   ar
    18    23    24   ar
    19    24    25   ar
    20    25    28    1
    21    28    29    1
    22    29    30    1
    23    30    31    1
    24    31    32    1
    25    32    33    1
    26    33    34    1
    27    34    35    1
    28    25    26   ar
    29    26    27   ar
    30     7     8   ar
    31     8     9   ar
    32     9    10   ar
    33    10    11   ar
    34    19    13   ar
    35    11     1   ar
    36    10     5   ar
    37    27    22   ar
    38    35    31    1
    39    20    21    1
@<TRIPOS>MOLECULE
*****
 35 39 0 0 0
SMALL
GASTEIGER

@<TRIPOS>ATOM
      1 C           0.1292    1.9714   26.4348 C.ar    1  UNL1        0.0007
      2 C          -0.6928    0.8755   27.0460 C.ar    1  UNL1       -0.0027
      3 C          -0.6672    0.6572   28.5297 C.ar    1  UNL1       -0.0026
      4 C          -1.4891   -0.4387   29.1409 C.3     1  UNL1        0.0327
      5 C           0.1804    1.5347   29.4025 C.ar    1  UNL1        0.0996
      6 N           0.2060    1.3164   30.8862 N.ar    1  UNL1       -0.2111
      7 C           1.0536    2.1939   31.7589 C.ar    1  UNL1        0.2398
      8 N           1.8755    3.2898   31.1478 N.ar    1  UNL1       -0.1123
      9 N           1.8499    3.5082   29.6640 N.ar    1  UNL1       -0.1437
     10 C           1.0023    2.6306   28.7914 C.ar    1  UNL1        0.1203
     11 C           0.9767    2.8489   27.3075 C.ar    1  UNL1        0.0224
     12 C          -1.9366    3.7758   25.2196 C.3     1  UNL1        0.0310
     13 C          -0.9293    3.0919   24.3434 C.ar    1  UNL1       -0.0221
     14 C          -0.9549    3.3102   22.8596 C.ar    1  UNL1       -0.0043
     15 C           0.0523    2.6263   21.9834 C.ar    1  UNL1       -0.0006
     16 C           1.0852    1.7241   22.5910 C.ar    1  UNL1       -0.0043
     17 C           1.1108    1.5058   24.0748 C.ar    1  UNL1       -0.0221
     18 C           2.1437    0.6036   24.6825 C.3     1  UNL1        0.0310
     19 C           0.1035    2.1897   24.9510 C.ar    1  UNL1       -0.0079
     20 N           1.0792    1.9756   33.2427 N.pl3   1  UNL1       -0.2813
     21 H           0.2937    1.5947   33.6979 H       1  UNL1        0.1551
     22 C           2.3017    2.3376   34.0330 C.ar    1  UNL1        0.0507
     23 C           2.3355    3.6147   34.8192 C.ar    1  UNL1        0.0178
     24 C           3.5579    3.9767   35.6095 C.ar    1  UNL1        0.0382
     25 C           4.7466    3.0616   35.6136 C.ar    1  UNL1        0.1387
     26 C           4.7127    1.7846   34.8275 C.ar    1  UNL1        0.0382
     27 C           3.4902    1.4226   34.0372 C.ar    1  UNL1        0.0178
     28 O           5.9690    3.4236   36.4039 O.3     1  UNL1       -0.4740
     29 C           6.3555    2.6091   37.6028 C.3     1  UNL1        0.2226
     30 C           5.5465    2.6986   38.8628 C.3     1  UNL1        0.1200
     31 N           4.0881    2.3480   38.8442 N.3     1  UNL1       -0.2696
     32 C           3.5072    1.0108   38.4915 C.3     1  UNL1        0.0722
     33 C           2.0147    1.1095   38.6044 C.3     1  UNL1        0.0188
     34 C           1.6733    2.5077   39.0269 C.3     1  UNL1        0.0188
     35 C           2.9547    3.2731   39.1751 C.3     1  UNL1        0.0722
@<TRIPOS>BOND
     1    12    13    1
     2    13    14   ar
     3    14    15   ar
     4    15    16   ar
     5    16    17   ar
     6    17    18    1
     7    17    19   ar
     8    19     1    1
     9     1     2   ar
    10     2     3   ar
    11     3     4    1
    12     3     5   ar
    13     5     6   ar
    14     6     7   ar
    15     7    20    1
    16    20    22    1
    17    22    23   ar
    18    23    24   ar
    19    24    25   ar
    20    25    28    1
    21    28    29    1
    22    29    30    1
    23    30    31    1
    24    31    32    1
    25    32    33    1
    26    33    34    1
    27    34    35    1
    28    25    26   ar
    29    26    27   ar
    30     7     8   ar
    31     8     9   ar
    32     9    10   ar
    33    10    11   ar
    34    19    13   ar
    35    11     1   ar
    36    10     5   ar
    37    27    22   ar
    38    35    31    1
    39    20    21    1
@<TRIPOS>MOLECULE
*****
 35 39 0 0 0
SMALL
GASTEIGER

@<TRIPOS>ATOM
      1 C           3.6907   -0.6355   19.8052 C.ar    1  UNL1        0.0007
      2 C           3.4142   -1.9849   19.2113 C.ar    1  UNL1       -0.0027
      3 C           4.2477   -3.1658   19.6122 C.ar    1  UNL1       -0.0026
      4 C           3.9712   -4.5152   19.0184 C.3     1  UNL1        0.0327
      5 C           5.3577   -2.9974   20.6070 C.ar    1  UNL1        0.0996
      6 N           6.1912   -4.1783   21.0079 N.ar    1  UNL1       -0.2111
      7 C           7.3012   -4.0097   22.0026 C.ar    1  UNL1        0.2398
      8 N           7.5777   -2.6603   22.5964 N.ar    1  UNL1       -0.1123
      9 N           6.7442   -1.4794   22.1956 N.ar    1  UNL1       -0.1437
     10 C           5.6342   -1.6479   21.2008 C.ar    1  UNL1        0.1203
     11 C           4.8007   -0.4670   20.7999 C.ar    1  UNL1        0.0224
     12 C           4.9153    1.5946   18.2155 C.3     1  UNL1        0.0310
     13 C           3.4695    1.6604   18.6094 C.ar    1  UNL1       -0.0221
     14 C           2.6359    2.8413   18.2086 C.ar    1  UNL1       -0.0043
     15 C           1.1901    2.9071   18.6025 C.ar    1  UNL1       -0.0006
     16 C           0.5778    1.7921   19.3973 C.ar    1  UNL1       -0.0043
     17 C           1.4113    0.6113   19.7982 C.ar    1  UNL1       -0.0221
     18 C           0.7990   -0.5038   20.5930 C.3     1  UNL1        0.0310
     19 C           2.8572    0.5454   19.4043 C.ar    1  UNL1       -0.0079
     20 N           8.1347   -5.1907   22.4035 N.pl3   1  UNL1       -0.2813
     21 H           8.7475   -5.6042   21.7533 H       1  UNL1        0.1551
     22 C           8.0346   -5.7415   23.7951 C.ar    1  UNL1        0.0507
     23 C           7.5266   -4.8757   24.9098 C.ar    1  UNL1        0.0178
     24 C           7.4265   -5.4265   26.3013 C.ar    1  UNL1        0.0382
     25 C           7.8343   -6.8432   26.5783 C.ar    1  UNL1        0.1387
     26 C           8.3423   -7.7090   25.4637 C.ar    1  UNL1        0.0382
     27 C           8.4424   -7.1582   24.0721 C.ar    1  UNL1        0.0178
     28 O           7.7342   -7.3941   27.9699 O.3     1  UNL1       -0.4740
     29 C           8.1701   -6.5617   29.1392 C.3     1  UNL1        0.2226
     30 C           7.1479   -5.8560   29.9801 C.3     1  UNL1        0.1200
     31 N           7.5384   -4.6480   30.7789 N.3     1  UNL1       -0.2696
     32 C           6.7282   -4.0128   31.8699 C.3     1  UNL1        0.0722
     33 C           7.4967   -2.8352   32.3922 C.3     1  UNL1        0.0188
     34 C           8.7818   -2.7427   31.6240 C.3     1  UNL1        0.0188
     35 C           8.8075   -3.8630   30.6269 C.3     1  UNL1        0.0722
@<TRIPOS>BOND
     1    12    13    1
     2    13    14   ar
     3    14    15   ar
     4    15    16   ar
     5    16    17   ar
     6    17    18    1
     7    17    19   ar
     8    19     1    1
     9     1     2   ar
    10     2     3   ar
    11     3     4    1
    12     3     5   ar
    13     5     6   ar
    14     6     7   ar
    15     7    20    1
    16    20    22    1
    17    22    23   ar
    18    23    24   ar
    19    24    25   ar
    20    25    28    1
    21    28    29    1
    22    29    30    1
    23    30    31    1
    24    31    32    1
    25    32    33    1
    26    33    34    1
    27    34    35    1
    28    25    26   ar
    29    26    27   ar
    30     7     8   ar
    31     8     9   ar
    32     9    10   ar
    33    10    11   ar
    34    19    13   ar
    35    11     1   ar
    36    10     5   ar
    37    27    22   ar
    38    35    31    1
    39    20    21    1
@<TRIPOS>MOLECULE
*****
 35 39 0 0 0
SMALL
GASTEIGER

@<TRIPOS>ATOM
      1 C          -1.1046    3.1619   26.4728 C.ar    1  UNL1        0.0007
      2 C          -0.3935    4.2908   27.1583 C.ar    1  UNL1       -0.0027
      3 C           0.4879    4.0144   28.3402 C.ar    1  UNL1       -0.0026
      4 C           1.1990    5.1433   29.0257 C.3     1  UNL1        0.0327
      5 C           0.6582    2.6092   28.8365 C.ar    1  UNL1        0.0996
      6 N           1.5396    2.3328   30.0183 N.ar    1  UNL1       -0.2111
      7 C           1.7099    0.9276   30.5146 C.ar    1  UNL1        0.2398
      8 N           0.9988   -0.2013   29.8291 N.ar    1  UNL1       -0.1123
      9 N           0.1174    0.0751   28.6472 N.ar    1  UNL1       -0.1437
     10 C          -0.0529    1.4803   28.1510 C.ar    1  UNL1        0.1203
     11 C          -0.9343    1.7567   26.9691 C.ar    1  UNL1        0.0224
     12 C          -3.9710    3.9432   26.8893 C.3     1  UNL1        0.0310
     13 C          -3.4192    3.8289   25.4992 C.ar    1  UNL1       -0.0221
     14 C          -4.3005    4.1053   24.3174 C.ar    1  UNL1       -0.0043
     15 C          -3.7487    3.9910   22.9272 C.ar    1  UNL1       -0.0006
     16 C          -2.3156    3.6003   22.7190 C.ar    1  UNL1       -0.0043
     17 C          -1.4342    3.3240   23.9008 C.ar    1  UNL1       -0.0221
     18 C          -0.0010    2.9333   23.6926 C.3     1  UNL1        0.0310
     19 C          -1.9860    3.4383   25.2909 C.ar    1  UNL1       -0.0079
     20 N           2.5913    0.6512   31.6965 N.pl3   1  UNL1       -0.2813
     21 H           2.4341    1.1195   32.5481 H       1  UNL1        0.1551
     22 C           3.7124   -0.3387   31.5808 C.ar    1  UNL1        0.0507
     23 C           4.0618   -1.2156   32.7466 C.ar    1  UNL1        0.0178
     24 C           5.1828   -2.2056   32.6309 C.ar    1  UNL1        0.0382
     25 C           5.9544   -2.3185   31.3495 C.ar    1  UNL1        0.1387
     26 C           5.6050   -1.4416   30.1838 C.ar    1  UNL1        0.0382
     27 C           4.4839   -0.4517   30.2995 C.ar    1  UNL1        0.0178
     28 O           7.0754   -3.3084   31.2338 O.3     1  UNL1       -0.4740
     29 C           6.8456   -4.7470   31.5914 C.3     1  UNL1        0.2226
     30 C           7.6079   -5.8270   30.8826 C.3     1  UNL1        0.1200
     31 N           7.4306   -6.0250   29.4064 N.3     1  UNL1       -0.2696
     32 C           8.2530   -6.9249   28.5324 C.3     1  UNL1        0.0722
     33 C           7.7304   -6.8139   27.1307 C.3     1  UNL1        0.0188
     34 C           6.5850   -5.8453   27.1385 C.3     1  UNL1        0.0188
     35 C           6.3997   -5.3578   28.5449 C.3     1  UNL1        0.0722
@<TRIPOS>BOND
     1    12    13    1
     2    13    14   ar
     3    14    15   ar
     4    15    16   ar
     5    16    17   ar
     6    17    18    1
     7    17    19   ar
     8    19     1    1
     9     1     2   ar
    10     2     3   ar
    11     3     4    1
    12     3     5   ar
    13     5     6   ar
    14     6     7   ar
    15     7    20    1
    16    20    22    1
    17    22    23   ar
    18    23    24   ar
    19    24    25   ar
    20    25    28    1
    21    28    29    1
    22    29    30    1
    23    30    31    1
    24    31    32    1
    25    32    33    1
    26    33    34    1
    27    34    35    1
    28    25    26   ar
    29    26    27   ar
    30     7     8   ar
    31     8     9   ar
    32     9    10   ar
    33    10    11   ar
    34    19    13   ar
    35    11     1   ar
    36    10     5   ar
    37    27    22   ar
    38    35    31    1
    39    20    21    1
@<TRIPOS>MOLECULE
*****
 35 39 0 0 0
SMALL
GASTEIGER

@<TRIPOS>ATOM
      1 C           1.8148    1.3153   23.4865 C.ar    1  UNL1        0.0007
      2 C           2.6513    2.5543   23.6089 C.ar    1  UNL1       -0.0027
      3 C           2.5247    3.4279   24.8217 C.ar    1  UNL1       -0.0026
      4 C           3.3613    4.6669   24.9441 C.3     1  UNL1        0.0327
      5 C           1.5615    3.0625   25.9120 C.ar    1  UNL1        0.0996
      6 N           1.4349    3.9360   27.1248 N.ar    1  UNL1       -0.2111
      7 C           0.4718    3.5706   28.2150 C.ar    1  UNL1        0.2398
      8 N          -0.3647    2.3315   28.0926 N.ar    1  UNL1       -0.1123
      9 N          -0.2381    1.4580   26.8798 N.ar    1  UNL1       -0.1437
     10 C           0.7250    1.8234   25.7896 C.ar    1  UNL1        0.1203
     11 C           0.8517    0.9498   24.5767 C.ar    1  UNL1        0.0224
     12 C           3.8435   -0.8942   23.4345 C.3     1  UNL1        0.0310
     13 C           2.9558   -0.6630   22.2477 C.ar    1  UNL1       -0.0221
     14 C           3.0824   -1.5366   21.0349 C.ar    1  UNL1       -0.0043
     15 C           2.1947   -1.3054   19.8481 C.ar    1  UNL1       -0.0006
     16 C           1.1803   -0.2007   19.8741 C.ar    1  UNL1       -0.0043
     17 C           1.0537    0.6728   21.0868 C.ar    1  UNL1       -0.0221
     18 C           0.0393    1.7776   21.1129 C.3     1  UNL1        0.0310
     19 C           1.9415    0.4417   22.2736 C.ar    1  UNL1       -0.0079
     20 N           0.3451    4.4442   29.4279 N.pl3   1  UNL1       -0.2813
     21 H          -0.0182    5.3552   29.3425 H       1  UNL1        0.1551
     22 C           0.7721    3.9297   30.7706 C.ar    1  UNL1        0.0507
     23 C           1.5149    2.6306   30.8745 C.ar    1  UNL1        0.0178
     24 C           1.9418    2.1161   32.2173 C.ar    1  UNL1        0.0382
     25 C           1.6260    2.9007   33.4561 C.ar    1  UNL1        0.1387
     26 C           0.8833    4.1997   33.3522 C.ar    1  UNL1        0.0382
     27 C           0.4563    4.7142   32.0094 C.ar    1  UNL1        0.0178
     28 O           2.0530    2.3862   34.7989 O.3     1  UNL1       -0.4740
     29 C           2.7068    3.3105   35.7830 C.3     1  UNL1        0.2226
     30 C           2.0193    3.6381   37.0753 C.3     1  UNL1        0.1200
     31 N           1.6922    2.5450   38.0489 N.3     1  UNL1       -0.2696
     32 C           2.4325    1.2493   38.2012 C.3     1  UNL1        0.0722
     33 C           1.7652    0.4591   39.2877 C.3     1  UNL1        0.0188
     34 C           0.6126    1.2665   39.8069 C.3     1  UNL1        0.0188
     35 C           0.5675    2.5556   39.0413 C.3     1  UNL1        0.0722
@<TRIPOS>BOND
     1    12    13    1
     2    13    14   ar
     3    14    15   ar
     4    15    16   ar
     5    16    17   ar
     6    17    18    1
     7    17    19   ar
     8    19     1    1
     9     1     2   ar
    10     2     3   ar
    11     3     4    1
    12     3     5   ar
    13     5     6   ar
    14     6     7   ar
    15     7    20    1
    16    20    22    1
    17    22    23   ar
    18    23    24   ar
    19    24    25   ar
    20    25    28    1
    21    28    29    1
    22    29    30    1
    23    30    31    1
    24    31    32    1
    25    32    33    1
    26    33    34    1
    27    34    35    1
    28    25    26   ar
    29    26    27   ar
    30     7     8   ar
    31     8     9   ar
    32     9    10   ar
    33    10    11   ar
    34    19    13   ar
    35    11     1   ar
    36    10     5   ar
    37    27    22   ar
    38    35    31    1
    39    20    21    1
@<TRIPOS>MOLECULE
*****
 35 39 0 0 0
SMALL
GASTEIGER

@<TRIPOS>ATOM
      1 C           3.6507   -0.5090   20.5333 C.ar    1  UNL1        0.0007
      2 C           2.4118    0.1021   19.9490 C.ar    1  UNL1       -0.0027
      3 C           1.3661    0.6863   20.8519 C.ar    1  UNL1       -0.0026
      4 C           0.1271    1.2975   20.2676 C.3     1  UNL1        0.0327
      5 C           1.5594    0.6592   22.3392 C.ar    1  UNL1        0.0996
      6 N           0.5137    1.2434   23.2421 N.ar    1  UNL1       -0.2111
      7 C           0.7070    1.2163   24.7293 C.ar    1  UNL1        0.2398
      8 N           1.9460    0.6051   25.3136 N.ar    1  UNL1       -0.1123
      9 N           2.9917    0.0210   24.4107 N.ar    1  UNL1       -0.1437
     10 C           2.7984    0.0480   22.9235 C.ar    1  UNL1        0.1203
     11 C           3.8440   -0.5361   22.0205 C.ar    1  UNL1        0.0224
     12 C           3.3700   -3.3252   19.5381 C.3     1  UNL1        0.0310
     13 C           4.5560   -2.5013   19.1327 C.ar    1  UNL1       -0.0221
     14 C           5.6017   -3.0853   18.2297 C.ar    1  UNL1       -0.0043
     15 C           6.7877   -2.2613   17.8243 C.ar    1  UNL1       -0.0006
     16 C           6.9281   -0.8533   18.3218 C.ar    1  UNL1       -0.0043
     17 C           5.8825   -0.2692   19.2248 C.ar    1  UNL1       -0.0221
     18 C           6.0228    1.1389   19.7224 C.3     1  UNL1        0.0310
     19 C           4.6964   -1.0932   19.6302 C.ar    1  UNL1       -0.0079
     20 N          -0.3387    1.8005   25.6324 N.pl3   1  UNL1       -0.2813
     21 H          -1.1557    2.1940   25.2493 H       1  UNL1        0.1551
     22 C          -0.1394    1.7849   27.1190 C.ar    1  UNL1        0.0507
     23 C          -0.7057    0.6644   27.9399 C.ar    1  UNL1        0.0178
     24 C          -0.5064    0.6488   29.4265 C.ar    1  UNL1        0.0382
     25 C           0.2591    1.7538   30.0922 C.ar    1  UNL1        0.1387
     26 C           0.8253    2.8742   29.2713 C.ar    1  UNL1        0.0382
     27 C           0.6261    2.8898   27.7847 C.ar    1  UNL1        0.0178
     28 O           0.4584    1.7382   31.5789 O.3     1  UNL1       -0.4740
     29 C           1.6734    2.3811   32.1795 C.3     1  UNL1        0.2226
     30 C           2.4001    1.7061   33.3048 C.3     1  UNL1        0.1200
     31 N           3.2555    0.5046   33.0315 N.3     1  UNL1       -0.2696
     32 C           3.2954   -0.2766   31.7516 C.3     1  UNL1        0.0722
     33 C           4.2857   -1.3906   31.9191 C.3     1  UNL1        0.0188
     34 C           4.8579   -1.2980   33.3027 C.3     1  UNL1        0.0188
     35 C           4.2211   -0.1266   33.9901 C.3     1  UNL1        0.0722
@<TRIPOS>BOND
     1    12    13    1
     2    13    14   ar
     3    14    15   ar
     4    15    16   ar
     5    16    17   ar
     6    17    18    1
     7    17    19   ar
     8    19     1    1
     9     1     2   ar
    10     2     3   ar
    11     3     4    1
    12     3     5   ar
    13     5     6   ar
    14     6     7   ar
    15     7    20    1
    16    20    22    1
    17    22    23   ar
    18    23    24   ar
    19    24    25   ar
    20    25    28    1
    21    28    29    1
    22    29    30    1
    23    30    31    1
    24    31    32    1
    25    32    33    1
    26    33    34    1
    27    34    35    1
    28    25    26   ar
    29    26    27   ar
    30     7     8   ar
    31     8     9   ar
    32     9    10   ar
    33    10    11   ar
    34    19    13   ar
    35    11     1   ar
    36    10     5   ar
    37    27    22   ar
    38    35    31    1
    39    20    21    1
@<TRIPOS>MOLECULE
*****
 35 39 0 0 0
SMALL
GASTEIGER

@<TRIPOS>ATOM
      1 C           3.6333   -0.5919   20.5745 C.ar    1  UNL1        0.0007
      2 C           2.3974    0.0271   19.9919 C.ar    1  UNL1       -0.0027
      3 C           1.3615    0.6271   20.8957 C.ar    1  UNL1       -0.0026
      4 C           0.1256    1.2460   20.3131 C.3     1  UNL1        0.0327
      5 C           1.5615    0.6081   22.3823 C.ar    1  UNL1        0.0996
      6 N           0.5256    1.2081   23.2861 N.ar    1  UNL1       -0.2111
      7 C           0.7257    1.1891   24.7725 C.ar    1  UNL1        0.2398
      8 N           1.9616    0.5702   25.3551 N.ar    1  UNL1       -0.1123
      9 N           2.9975   -0.0298   24.4513 N.ar    1  UNL1       -0.1437
     10 C           2.7974   -0.0108   22.9649 C.ar    1  UNL1        0.1203
     11 C           3.8333   -0.6108   22.0609 C.ar    1  UNL1        0.0224
     12 C           6.0340    1.0166   19.7687 C.3     1  UNL1        0.0310
     13 C           5.8695   -0.3876   19.2677 C.ar    1  UNL1       -0.0221
     14 C           6.9053   -0.9876   18.3638 C.ar    1  UNL1       -0.0043
     15 C           6.7408   -2.3919   17.8628 C.ar    1  UNL1       -0.0006
     16 C           5.5405   -3.1961   18.2657 C.ar    1  UNL1       -0.0043
     17 C           4.5047   -2.5961   19.1696 C.ar    1  UNL1       -0.0221
     18 C           3.3042   -3.4004   19.5725 C.3     1  UNL1        0.0310
     19 C           4.6692   -1.1919   19.6706 C.ar    1  UNL1       -0.0079
     20 N          -0.3102    1.7891   25.6765 N.pl3   1  UNL1       -0.2813
     21 H          -1.1167    2.2042   25.2936 H       1  UNL1        0.1551
     22 C          -0.1173    1.7566   27.1636 C.ar    1  UNL1        0.0507
     23 C           0.6170    2.8705   27.8492 C.ar    1  UNL1        0.0178
     24 C           0.8099    2.8380   29.3364 C.ar    1  UNL1        0.0382
     25 C           0.2684    1.6915   30.1380 C.ar    1  UNL1        0.1387
     26 C          -0.4659    0.5777   29.4524 C.ar    1  UNL1        0.0382
     27 C          -0.6588    0.6102   27.9653 C.ar    1  UNL1        0.0178
     28 O           0.4613    1.6590   31.6252 O.3     1  UNL1       -0.4740
     29 C           1.6981    2.2502   32.2342 C.3     1  UNL1        0.2226
     30 C           1.6095    3.0087   33.5252 C.3     1  UNL1        0.1200
     31 N           0.7699    4.2488   33.6103 N.3     1  UNL1       -0.2696
     32 C          -0.2831    4.6698   32.6285 C.3     1  UNL1        0.0722
     33 C          -0.8679    5.9668   33.1036 C.3     1  UNL1        0.0188
     34 C          -0.1762    6.3475   34.3790 C.3     1  UNL1        0.0188
     35 C           0.8360    5.2857   34.6922 C.3     1  UNL1        0.0722
@<TRIPOS>BOND
     1    12    13    1
     2    13    14   ar
     3    14    15   ar
     4    15    16   ar
     5    16    17   ar
     6    17    18    1
     7    17    19   ar
     8    19     1    1
     9     1     2   ar
    10     2     3   ar
    11     3     4    1
    12     3     5   ar
    13     5     6   ar
    14     6     7   ar
    15     7    20    1
    16    20    22    1
    17    22    23   ar
    18    23    24   ar
    19    24    25   ar
    20    25    28    1
    21    28    29    1
    22    29    30    1
    23    30    31    1
    24    31    32    1
    25    32    33    1
    26    33    34    1
    27    34    35    1
    28    25    26   ar
    29    26    27   ar
    30     7     8   ar
    31     8     9   ar
    32     9    10   ar
    33    10    11   ar
    34    19    13   ar
    35    11     1   ar
    36    10     5   ar
    37    27    22   ar
    38    35    31    1
    39    20    21    1
@<TRIPOS>MOLECULE
*****
 35 39 0 0 0
SMALL
GASTEIGER

@<TRIPOS>ATOM
      1 C           2.9783   -0.4152   20.8132 C.ar    1  UNL1        0.0007
      2 C           3.6704    0.4724   19.8217 C.ar    1  UNL1       -0.0027
      3 C           2.9420    1.6391   19.2232 C.ar    1  UNL1       -0.0026
      4 C           3.6341    2.5268   18.2316 C.3     1  UNL1        0.0327
      5 C           1.5216    1.9183   19.6162 C.ar    1  UNL1        0.0996
      6 N           0.7932    3.0850   19.0178 N.ar    1  UNL1       -0.2111
      7 C          -0.6272    3.3641   19.4108 C.ar    1  UNL1        0.2398
      8 N          -1.3192    2.4764   20.4024 N.ar    1  UNL1       -0.1123
      9 N          -0.5909    1.3097   21.0009 N.ar    1  UNL1       -0.1437
     10 C           0.8295    1.0306   20.6078 C.ar    1  UNL1        0.1203
     11 C           1.5579   -0.1361   21.2063 C.ar    1  UNL1        0.0224
     12 C           3.5347   -2.8494   19.1503 C.3     1  UNL1        0.0310
     13 C           3.9849   -2.7990   20.5803 C.ar    1  UNL1       -0.0221
     14 C           4.7133   -3.9657   21.1788 C.ar    1  UNL1       -0.0043
     15 C           5.1636   -3.9153   22.6087 C.ar    1  UNL1       -0.0006
     16 C           4.8854   -2.6983   23.4402 C.ar    1  UNL1       -0.0043
     17 C           4.1570   -1.5316   22.8417 C.ar    1  UNL1       -0.0221
     18 C           3.8788   -0.3145   23.6731 C.3     1  UNL1        0.0310
     19 C           3.7068   -1.5820   21.4117 C.ar    1  UNL1       -0.0079
     20 N          -1.3556    4.5308   18.8123 N.pl3   1  UNL1       -0.2813
     21 H          -0.9186    5.0840   18.1251 H       1  UNL1        0.1551
     22 C          -2.7499    4.8547   19.2609 C.ar    1  UNL1        0.0507
     23 C          -2.9720    5.8562   20.3553 C.ar    1  UNL1        0.0178
     24 C          -4.3663    6.1801   20.8039 C.ar    1  UNL1        0.0382
     25 C          -5.5383    5.5024   20.1580 C.ar    1  UNL1        0.1387
     26 C          -5.3161    4.5009   19.0637 C.ar    1  UNL1        0.0382
     27 C          -3.9219    4.1770   18.6152 C.ar    1  UNL1        0.0178
     28 O          -6.9326    5.8262   20.6066 O.3     1  UNL1       -0.4740
     29 C          -7.3388    5.5802   22.0295 C.3     1  UNL1        0.2226
     30 C          -7.1263    4.2300   22.6474 C.3     1  UNL1        0.1200
     31 N          -5.9460    3.9920   23.5420 N.3     1  UNL1       -0.2696
     32 C          -4.6687    3.3084   23.1533 C.3     1  UNL1        0.0722
     33 C          -3.7691    3.2897   24.3535 C.3     1  UNL1        0.0188
     34 C          -4.4906    3.9618   25.4839 C.3     1  UNL1        0.0188
     35 C          -5.8359    4.3958   24.9824 C.3     1  UNL1        0.0722
@<TRIPOS>BOND
     1    12    13    1
     2    13    14   ar
     3    14    15   ar
     4    15    16   ar
     5    16    17   ar
     6    17    18    1
     7    17    19   ar
     8    19     1    1
     9     1     2   ar
    10     2     3   ar
    11     3     4    1
    12     3     5   ar
    13     5     6   ar
    14     6     7   ar
    15     7    20    1
    16    20    22    1
    17    22    23   ar
    18    23    24   ar
    19    24    25   ar
    20    25    28    1
    21    28    29    1
    22    29    30    1
    23    30    31    1
    24    31    32    1
    25    32    33    1
    26    33    34    1
    27    34    35    1
    28    25    26   ar
    29    26    27   ar
    30     7     8   ar
    31     8     9   ar
    32     9    10   ar
    33    10    11   ar
    34    19    13   ar
    35    11     1   ar
    36    10     5   ar
    37    27    22   ar
    38    35    31    1
    39    20    21    1
