@<TRIPOS>MOLECULE
*****
 27 30 0 0 0
SMALL
GASTEIGER

@<TRIPOS>ATOM
      1 C          -5.5873  -18.9322   21.8970 C.ar    1  UNL1        0.1354
      2 C          -6.5995  -18.2174   22.7422 C.ar    1  UNL1        0.0414
      3 C          -8.0425  -18.2032   22.3331 C.ar    1  UNL1        0.0177
      4 C          -8.4734  -18.9039   21.0787 C.ar    1  UNL1        0.0440
      5 C          -7.4612  -19.6187   20.2335 C.ar    1  UNL1       -0.0054
      6 C          -6.0182  -19.6328   20.6426 C.ar    1  UNL1        0.0371
      7 C          -7.8920  -20.3193   18.9791 C.3     1  UNL1        0.0295
      8 C          -9.3350  -20.3052   18.5699 C.3     1  UNL1        0.0261
      9 C         -10.3473  -19.5903   19.4152 C.3     1  UNL1        0.0910
     10 N          -9.9165  -18.8897   20.6696 N.pl3   1  UNL1       -0.3093
     11 C         -10.9287  -18.1749   21.5148 C.3     1  UNL1        0.0755
     12 C         -11.2927  -16.7527   21.2071 C.3     1  UNL1        0.0368
     13 C         -12.3050  -16.0379   22.0525 C.3     1  UNL1        0.0703
     14 N         -12.9531  -16.7454   23.2054 N.3     1  UNL1       -0.2974
     15 C         -12.5891  -18.1676   23.5131 C.3     1  UNL1        0.0703
     16 C         -11.5769  -18.8824   22.6679 C.3     1  UNL1        0.0368
     17 H         -13.9584  -16.7294   23.0332 H       1  UNL1        0.1232
     18 N          -4.1442  -18.9463   22.3061 N.pl3   1  UNL1       -0.1990
     19 H          -3.7791  -19.7181   22.7963 H       1  UNL1        0.2985
     20 N          -3.2170  -16.5855   22.8686 N.2     1  UNL1       -0.0985
     21 C          -3.2575  -17.7846   21.9684 C.2     1  UNL1        0.3224
     22 H          -3.7724  -16.5609   23.6811 H       1  UNL1        0.3633
     23 C          -2.4112  -17.8220   20.7304 C.ar    1  UNL1        0.1114
     24 C          -2.8944  -18.1141   19.3407 C.ar    1  UNL1        0.0144
     25 C          -1.7150  -18.0465   18.4162 C.ar    1  UNL1        0.0077
     26 C          -0.5030  -17.7127   19.2346 C.ar    1  UNL1        0.0357
     27 S          -0.9333  -17.5740   20.6649 S.2     1  UNL1       -0.0792
@<TRIPOS>BOND
     1    20    21    2
     2    21    18    1
     3    18     1    1
     4     1     2   ar
     5     2     3   ar
     6     3     4   ar
     7     4     5   ar
     8     5     6   ar
     9     5     7    1
    10     7     8    1
    11     8     9    1
    12     9    10    1
    13    10    11    1
    14    11    12    1
    15    12    13    1
    16    13    14    1
    17    14    15    1
    18    15    16    1
    19    21    23    1
    20    23    24   ar
    21    24    25   ar
    22    25    26   ar
    23    26    27   ar
    24     6     1   ar
    25    16    11    1
    26    27    23   ar
    27    10     4    1
    28    20    22    1
    29    18    19    1
    30    14    17    1
@<TRIPOS>MOLECULE
*****
 27 30 0 0 0
SMALL
GASTEIGER

@<TRIPOS>ATOM
      1 C          -7.9077  -18.2405   23.1179 C.ar    1  UNL1        0.1354
      2 C          -6.7218  -17.3222   23.1155 C.ar    1  UNL1        0.0414
      3 C          -5.4923  -17.6871   22.3377 C.ar    1  UNL1        0.0177
      4 C          -5.4487  -18.9704   21.5623 C.ar    1  UNL1        0.0440
      5 C          -6.6347  -19.8888   21.5647 C.ar    1  UNL1       -0.0054
      6 C          -7.8642  -19.5238   22.3426 C.ar    1  UNL1        0.0371
      7 C          -6.5911  -21.1721   20.7893 C.3     1  UNL1        0.0295
      8 C          -5.3616  -21.5371   20.0115 C.3     1  UNL1        0.0261
      9 C          -4.1756  -20.6187   20.0091 C.3     1  UNL1        0.0910
     10 N          -4.2191  -19.3354   20.7844 N.pl3   1  UNL1       -0.3093
     11 C          -3.0331  -18.4170   20.7820 C.3     1  UNL1        0.0755
     12 C          -2.0133  -18.5119   19.6861 C.3     1  UNL1        0.0368
     13 C          -0.8273  -17.5935   19.6837 C.3     1  UNL1        0.0703
     14 N          -0.6611  -16.5802   20.7772 N.3     1  UNL1       -0.2974
     15 C          -1.6810  -16.4853   21.8731 C.3     1  UNL1        0.0703
     16 C          -2.8669  -17.4037   21.8755 C.3     1  UNL1        0.0368
     17 H          -0.6258  -15.6652   20.3278 H       1  UNL1        0.1232
     18 N          -9.1373  -17.8756   23.8958 N.pl3   1  UNL1       -0.1990
     19 H          -9.4614  -18.4691   24.6113 H       1  UNL1        0.2985
     20 N          -9.6354  -15.3784   24.4116 N.2     1  UNL1       -0.0985
     21 C          -9.8731  -16.6063   23.5835 C.2     1  UNL1        0.3224
     22 H          -8.9965  -15.4056   25.1601 H       1  UNL1        0.3633
     23 C         -10.8467  -16.5649   22.4431 C.ar    1  UNL1        0.1114
     24 C         -10.6018  -15.9507   21.0967 C.ar    1  UNL1        0.0144
     25 C         -11.8398  -16.1366   20.2703 C.ar    1  UNL1        0.0077
     26 C         -12.8498  -16.8658   21.1060 C.ar    1  UNL1        0.0357
     27 S         -12.2360  -17.1305   22.4488 S.2     1  UNL1       -0.0792
@<TRIPOS>BOND
     1    20    21    2
     2    21    18    1
     3    18     1    1
     4     1     2   ar
     5     2     3   ar
     6     3     4   ar
     7     4     5   ar
     8     5     6   ar
     9     5     7    1
    10     7     8    1
    11     8     9    1
    12     9    10    1
    13    10    11    1
    14    11    12    1
    15    12    13    1
    16    13    14    1
    17    14    15    1
    18    15    16    1
    19    21    23    1
    20    23    24   ar
    21    24    25   ar
    22    25    26   ar
    23    26    27   ar
    24     6     1   ar
    25    16    11    1
    26    27    23   ar
    27    10     4    1
    28    20    22    1
    29    18    19    1
    30    14    17    1
@<TRIPOS>MOLECULE
*****
 27 30 0 0 0
SMALL
GASTEIGER

@<TRIPOS>ATOM
      1 C          -5.6001  -18.8299   22.0319 C.ar    1  UNL1        0.1354
      2 C          -6.6579  -18.1453   22.8456 C.ar    1  UNL1        0.0414
      3 C          -8.0875  -18.1719   22.3922 C.ar    1  UNL1        0.0177
      4 C          -8.4592  -18.8832   21.1249 C.ar    1  UNL1        0.0440
      5 C          -7.4014  -19.5678   20.3111 C.ar    1  UNL1       -0.0054
      6 C          -5.9719  -19.5412   20.7646 C.ar    1  UNL1        0.0371
      7 C          -7.7731  -20.2791   19.0439 C.3     1  UNL1        0.0295
      8 C          -9.2026  -20.3057   18.5904 C.3     1  UNL1        0.0261
      9 C         -10.2605  -19.6210   19.4042 C.3     1  UNL1        0.0910
     10 N          -9.8888  -18.9098   20.6714 N.pl3   1  UNL1       -0.3093
     11 C         -10.9466  -18.2251   21.4852 C.3     1  UNL1        0.0755
     12 C         -11.3865  -16.8364   21.1275 C.3     1  UNL1        0.0368
     13 C         -12.4443  -16.1517   21.9414 C.3     1  UNL1        0.0703
     14 N         -13.0623  -16.8558   23.1128 N.3     1  UNL1       -0.2974
     15 C         -12.6224  -18.2446   23.4705 C.3     1  UNL1        0.0703
     16 C         -11.5646  -18.9292   22.6567 C.3     1  UNL1        0.0368
     17 H         -14.0653  -16.9017   22.9331 H       1  UNL1        0.1232
     18 N          -4.1705  -18.8033   22.4853 N.pl3   1  UNL1       -0.1990
     19 H          -3.6306  -19.6261   22.4597 H       1  UNL1        0.2985
     20 N          -2.2302  -17.0758   22.4564 N.2     1  UNL1       -0.0985
     21 C          -3.5636  -17.5231   22.9779 C.2     1  UNL1        0.3224
     22 H          -1.7533  -17.6226   21.7909 H       1  UNL1        0.3633
     23 C          -4.2902  -16.6901   23.9920 C.ar    1  UNL1        0.1114
     24 C          -4.3950  -16.9808   25.4598 C.ar    1  UNL1        0.0144
     25 C          -5.2090  -15.8905   26.0913 C.ar    1  UNL1        0.0077
     26 C          -5.6073  -14.9260   25.0136 C.ar    1  UNL1        0.0357
     27 S          -5.0394  -15.4202   23.7162 S.2     1  UNL1       -0.0792
@<TRIPOS>BOND
     1    20    21    2
     2    21    18    1
     3    18     1    1
     4     1     2   ar
     5     2     3   ar
     6     3     4   ar
     7     4     5   ar
     8     5     6   ar
     9     5     7    1
    10     7     8    1
    11     8     9    1
    12     9    10    1
    13    10    11    1
    14    11    12    1
    15    12    13    1
    16    13    14    1
    17    14    15    1
    18    15    16    1
    19    21    23    1
    20    23    24   ar
    21    24    25   ar
    22    25    26   ar
    23    26    27   ar
    24     6     1   ar
    25    16    11    1
    26    27    23   ar
    27    10     4    1
    28    20    22    1
    29    18    19    1
    30    14    17    1
@<TRIPOS>MOLECULE
*****
 27 30 0 0 0
SMALL
GASTEIGER

@<TRIPOS>ATOM
      1 C           5.2136   -2.9664   23.8589 C.ar    1  UNL1        0.1354
      2 C           4.2805   -1.7958   23.7647 C.ar    1  UNL1        0.0414
      3 C           3.7267   -1.3834   22.4332 C.ar    1  UNL1        0.0177
      4 C           4.1059   -2.1416   21.1957 C.ar    1  UNL1        0.0440
      5 C           5.0390   -3.3123   21.2899 C.ar    1  UNL1       -0.0054
      6 C           5.5929   -3.7246   22.6214 C.ar    1  UNL1        0.0371
      7 C           5.4183   -4.0705   20.0524 C.3     1  UNL1        0.0295
      8 C           4.8644   -3.6581   18.7209 C.3     1  UNL1        0.0261
      9 C           3.9312   -2.4874   18.6267 C.3     1  UNL1        0.0910
     10 N           3.5520   -1.7292   19.8641 N.pl3   1  UNL1       -0.3093
     11 C           2.6189   -0.5586   19.7700 C.3     1  UNL1        0.0755
     12 C           1.1937   -0.6977   20.2167 C.3     1  UNL1        0.0368
     13 C           0.2606    0.4731   20.1225 C.3     1  UNL1        0.0703
     14 N           0.7526    1.7827   19.5817 N.3     1  UNL1       -0.2974
     15 C           2.1778    1.9218   19.1349 C.3     1  UNL1        0.0703
     16 C           3.1109    0.7512   19.2291 C.3     1  UNL1        0.0368
     17 H           0.6042    2.4778   20.3132 H       1  UNL1        0.1232
     18 N           5.7676   -3.3788   25.1905 N.pl3   1  UNL1       -0.1990
     19 H           5.2150   -3.2947   26.0009 H       1  UNL1        0.2985
     20 N           8.3339   -2.9816   25.2685 N.2     1  UNL1       -0.0985
     21 C           7.1634   -3.9194   25.2873 C.2     1  UNL1        0.3224
     22 H           8.1860   -2.0112   25.1926 H       1  UNL1        0.3633
     23 C           7.3888   -5.3979   25.4029 C.ar    1  UNL1        0.1114
     24 C           8.0800   -6.2659   24.3936 C.ar    1  UNL1        0.0144
     25 C           8.0809   -7.6725   24.9150 C.ar    1  UNL1        0.0077
     26 C           7.3902   -7.6736   26.2466 C.ar    1  UNL1        0.0357
     27 S           6.9625   -6.2679   26.5481 S.2     1  UNL1       -0.0792
@<TRIPOS>BOND
     1    20    21    2
     2    21    18    1
     3    18     1    1
     4     1     2   ar
     5     2     3   ar
     6     3     4   ar
     7     4     5   ar
     8     5     6   ar
     9     5     7    1
    10     7     8    1
    11     8     9    1
    12     9    10    1
    13    10    11    1
    14    11    12    1
    15    12    13    1
    16    13    14    1
    17    14    15    1
    18    15    16    1
    19    21    23    1
    20    23    24   ar
    21    24    25   ar
    22    25    26   ar
    23    26    27   ar
    24     6     1   ar
    25    16    11    1
    26    27    23   ar
    27    10     4    1
    28    20    22    1
    29    18    19    1
    30    14    17    1
@<TRIPOS>MOLECULE
*****
 27 30 0 0 0
SMALL
GASTEIGER

@<TRIPOS>ATOM
      1 C           7.2545   -4.1057   24.2556 C.ar    1  UNL1        0.1354
      2 C           7.2469   -3.3862   25.5717 C.ar    1  UNL1        0.0414
      3 C           7.5701   -4.1288   26.8343 C.ar    1  UNL1        0.0177
      4 C           7.9011   -5.5909   26.7807 C.ar    1  UNL1        0.0440
      5 C           7.9087   -6.3104   25.4646 C.ar    1  UNL1       -0.0054
      6 C           7.5855   -5.5678   24.2020 C.ar    1  UNL1        0.0371
      7 C           8.2397   -7.7724   25.4110 C.3     1  UNL1        0.0295
      8 C           8.5629   -8.5150   26.6736 C.3     1  UNL1        0.0261
      9 C           8.5553   -7.7955   27.9898 C.3     1  UNL1        0.0910
     10 N           8.2243   -6.3334   28.0434 N.pl3   1  UNL1       -0.3093
     11 C           8.2167   -5.6139   29.3595 C.3     1  UNL1        0.0755
     12 C           6.9641   -5.5711   30.1836 C.3     1  UNL1        0.0368
     13 C           6.9564   -4.8516   31.4997 C.3     1  UNL1        0.0703
     14 N           8.2014   -4.1748   31.9918 N.3     1  UNL1       -0.2974
     15 C           9.4540   -4.2176   31.1677 C.3     1  UNL1        0.0703
     16 C           9.4616   -4.9371   29.8516 C.3     1  UNL1        0.0368
     17 H           8.4277   -4.5943   32.8936 H       1  UNL1        0.1232
     18 N           6.9313   -3.3632   22.9930 N.pl3   1  UNL1       -0.1990
     19 H           7.6422   -2.8866   22.5065 H       1  UNL1        0.2985
     20 N           4.3759   -3.1675   23.4191 N.2     1  UNL1       -0.0985
     21 C           5.5249   -3.3468   22.4717 C.2     1  UNL1        0.3224
     22 H           4.5448   -3.0606   24.3830 H       1  UNL1        0.3633
     23 C           5.2675   -3.5098   21.0029 C.ar    1  UNL1        0.1114
     24 C           4.1957   -4.3576   20.3844 C.ar    1  UNL1        0.0144
     25 C           4.3025   -4.2253   18.8940 C.ar    1  UNL1        0.0077
     26 C           5.4403   -3.2958   18.5915 C.ar    1  UNL1        0.0357
     27 S           6.0367   -2.8536   19.8948 S.2     1  UNL1       -0.0792
@<TRIPOS>BOND
     1    20    21    2
     2    21    18    1
     3    18     1    1
     4     1     2   ar
     5     2     3   ar
     6     3     4   ar
     7     4     5   ar
     8     5     6   ar
     9     5     7    1
    10     7     8    1
    11     8     9    1
    12     9    10    1
    13    10    11    1
    14    11    12    1
    15    12    13    1
    16    13    14    1
    17    14    15    1
    18    15    16    1
    19    21    23    1
    20    23    24   ar
    21    24    25   ar
    22    25    26   ar
    23    26    27   ar
    24     6     1   ar
    25    16    11    1
    26    27    23   ar
    27    10     4    1
    28    20    22    1
    29    18    19    1
    30    14    17    1
@<TRIPOS>MOLECULE
*****
 27 30 0 0 0
SMALL
GASTEIGER

@<TRIPOS>ATOM
      1 C           3.3770    0.1683   24.6085 C.ar    1  UNL1        0.1354
      2 C           4.3322   -0.6550   23.7962 C.ar    1  UNL1        0.0414
      3 C           4.0360   -0.9423   22.3542 C.ar    1  UNL1        0.0177
      4 C           2.7845   -0.4064   21.7243 C.ar    1  UNL1        0.0440
      5 C           1.8293    0.4168   22.5365 C.ar    1  UNL1       -0.0054
      6 C           2.1255    0.7042   23.9786 C.ar    1  UNL1        0.0371
      7 C           0.5779    0.9527   21.9067 C.3     1  UNL1        0.0295
      8 C           0.2816    0.6654   20.4646 C.3     1  UNL1        0.0261
      9 C           1.2368   -0.1579   19.6523 C.3     1  UNL1        0.0910
     10 N           2.4883   -0.6938   20.2822 N.pl3   1  UNL1       -0.3093
     11 C           3.4435   -1.5171   19.4699 C.3     1  UNL1        0.0755
     12 C           4.4654   -0.8429   18.6033 C.3     1  UNL1        0.0368
     13 C           5.4207   -1.6662   17.7910 C.3     1  UNL1        0.0703
     14 N           5.3540   -3.1637   17.8454 N.3     1  UNL1       -0.2974
     15 C           4.3320   -3.8379   18.7121 C.3     1  UNL1        0.0703
     16 C           3.3768   -3.0147   19.5243 C.3     1  UNL1        0.0368
     17 H           6.2680   -3.4879   18.1614 H       1  UNL1        0.1232
     18 N           3.6732    0.4557   26.0506 N.pl3   1  UNL1       -0.1990
     19 H           4.3643    1.1150   26.2893 H       1  UNL1        0.2985
     20 N           3.2338   -1.6935   27.4426 N.2     1  UNL1       -0.0985
     21 C           2.9165   -0.2614   27.1291 C.2     1  UNL1        0.3224
     22 H           3.9387   -2.1628   26.9405 H       1  UNL1        0.3633
     23 C           1.8424    0.4536   27.8940 C.ar    1  UNL1        0.1114
     24 C           1.2118    1.7609   27.5154 C.ar    1  UNL1        0.0144
     25 C           0.1900    2.1022   28.5593 C.ar    1  UNL1        0.0077
     26 C           0.1891    1.0058   29.5830 C.ar    1  UNL1        0.0357
     27 S           1.2104   -0.0131   29.1718 S.2     1  UNL1       -0.0792
@<TRIPOS>BOND
     1    20    21    2
     2    21    18    1
     3    18     1    1
     4     1     2   ar
     5     2     3   ar
     6     3     4   ar
     7     4     5   ar
     8     5     6   ar
     9     5     7    1
    10     7     8    1
    11     8     9    1
    12     9    10    1
    13    10    11    1
    14    11    12    1
    15    12    13    1
    16    13    14    1
    17    14    15    1
    18    15    16    1
    19    21    23    1
    20    23    24   ar
    21    24    25   ar
    22    25    26   ar
    23    26    27   ar
    24     6     1   ar
    25    16    11    1
    26    27    23   ar
    27    10     4    1
    28    20    22    1
    29    18    19    1
    30    14    17    1
@<TRIPOS>MOLECULE
*****
 27 30 0 0 0
SMALL
GASTEIGER

@<TRIPOS>ATOM
      1 C          -6.9087  -16.8671   23.0033 C.ar    1  UNL1        0.1354
      2 C          -8.0526  -16.6630   23.9518 C.ar    1  UNL1        0.0414
      3 C          -9.3802  -17.3038   23.6746 C.ar    1  UNL1        0.0177
      4 C          -9.5638  -18.1486   22.4488 C.ar    1  UNL1        0.0440
      5 C          -8.4199  -18.3527   21.5003 C.ar    1  UNL1       -0.0054
      6 C          -7.0923  -17.7119   21.7776 C.ar    1  UNL1        0.0371
      7 C          -8.6036  -19.1976   20.2746 C.3     1  UNL1        0.0295
      8 C          -9.9312  -19.8383   19.9973 C.3     1  UNL1        0.0261
      9 C         -11.0752  -19.6343   20.9459 C.3     1  UNL1        0.0910
     10 N         -10.8915  -18.7894   22.1716 N.pl3   1  UNL1       -0.3093
     11 C         -12.0354  -18.5853   23.1202 C.3     1  UNL1        0.0755
     12 C         -13.3068  -17.9527   22.6369 C.3     1  UNL1        0.0368
     13 C         -14.4507  -17.7486   23.5855 C.3     1  UNL1        0.0703
     14 N         -14.3233  -18.1772   25.0173 N.3     1  UNL1       -0.2974
     15 C         -13.0520  -18.8097   25.5006 C.3     1  UNL1        0.0703
     16 C         -11.9081  -19.0138   24.5520 C.3     1  UNL1        0.0368
     17 H         -15.0710  -18.8487   25.1913 H       1  UNL1        0.1232
     18 N          -5.5810  -16.2263   23.2805 N.pl3   1  UNL1       -0.1990
     19 H          -5.4550  -15.2639   23.1161 H       1  UNL1        0.2985
     20 N          -4.1788  -17.1049   25.2835 N.2     1  UNL1       -0.0985
     21 C          -4.4454  -17.0519   23.8083 C.2     1  UNL1        0.3224
     22 H          -4.7492  -16.5977   25.9053 H       1  UNL1        0.3633
     23 C          -3.5762  -17.8247   22.8609 C.ar    1  UNL1        0.1114
     24 C          -2.3081  -17.3336   22.2279 C.ar    1  UNL1        0.0144
     25 C          -1.7707  -18.4296   21.3559 C.ar    1  UNL1        0.0077
     26 C          -2.7068  -19.5979   21.4500 C.ar    1  UNL1        0.0357
     27 S          -3.8227  -19.2240   22.3801 S.2     1  UNL1       -0.0792
@<TRIPOS>BOND
     1    20    21    2
     2    21    18    1
     3    18     1    1
     4     1     2   ar
     5     2     3   ar
     6     3     4   ar
     7     4     5   ar
     8     5     6   ar
     9     5     7    1
    10     7     8    1
    11     8     9    1
    12     9    10    1
    13    10    11    1
    14    11    12    1
    15    12    13    1
    16    13    14    1
    17    14    15    1
    18    15    16    1
    19    21    23    1
    20    23    24   ar
    21    24    25   ar
    22    25    26   ar
    23    26    27   ar
    24     6     1   ar
    25    16    11    1
    26    27    23   ar
    27    10     4    1
    28    20    22    1
    29    18    19    1
    30    14    17    1
@<TRIPOS>MOLECULE
*****
 27 30 0 0 0
SMALL
GASTEIGER

@<TRIPOS>ATOM
      1 C           6.9488   -3.9032   24.3486 C.ar    1  UNL1        0.1354
      2 C           6.9750   -3.2476   25.6975 C.ar    1  UNL1        0.0414
      3 C           7.3681   -4.0398   26.9090 C.ar    1  UNL1        0.0177
      4 C           7.7351   -5.4877   26.7716 C.ar    1  UNL1        0.0440
      5 C           7.7090   -6.1434   25.4228 C.ar    1  UNL1       -0.0054
      6 C           7.3159   -5.3511   24.2113 C.ar    1  UNL1        0.0371
      7 C           8.0761   -7.5913   25.2855 C.3     1  UNL1        0.0295
      8 C           8.4692   -8.3835   26.4970 C.3     1  UNL1        0.0261
      9 C           8.4953   -7.7278   27.8459 C.3     1  UNL1        0.0910
     10 N           8.1283   -6.2799   27.9832 N.pl3   1  UNL1       -0.3093
     11 C           8.1544   -5.6243   29.3320 C.3     1  UNL1        0.0755
     12 C           9.4184   -4.9918   29.8342 C.3     1  UNL1        0.0368
     13 C           9.4445   -4.3361   31.1831 C.3     1  UNL1        0.0703
     14 N           8.2065   -4.3129   32.0298 N.3     1  UNL1       -0.2974
     15 C           6.9425   -4.9453   31.5276 C.3     1  UNL1        0.0703
     16 C           6.9164   -5.6010   30.1788 C.3     1  UNL1        0.0368
     17 H           7.9929   -3.3323   32.2121 H       1  UNL1        0.1232
     18 N           6.5557   -3.1110   23.1371 N.pl3   1  UNL1       -0.1990
     19 H           7.2304   -2.5786   22.6568 H       1  UNL1        0.2985
     20 N           4.6339   -4.2847   21.8414 N.2     1  UNL1       -0.0985
     21 C           5.1347   -3.1299   22.6572 C.2     1  UNL1        0.3224
     22 H           5.2379   -5.0302   21.6208 H       1  UNL1        0.3633
     23 C           4.2144   -1.9940   22.9933 C.ar    1  UNL1        0.1114
     24 C           3.3250   -1.2654   22.0299 C.ar    1  UNL1        0.0144
     25 C           2.5828   -0.2084   22.7929 C.ar    1  UNL1        0.0077
     26 C           3.0136   -0.2839   24.2278 C.ar    1  UNL1        0.0357
     27 S           4.0219   -1.3875   24.3516 S.2     1  UNL1       -0.0792
@<TRIPOS>BOND
     1    20    21    2
     2    21    18    1
     3    18     1    1
     4     1     2   ar
     5     2     3   ar
     6     3     4   ar
     7     4     5   ar
     8     5     6   ar
     9     5     7    1
    10     7     8    1
    11     8     9    1
    12     9    10    1
    13    10    11    1
    14    11    12    1
    15    12    13    1
    16    13    14    1
    17    14    15    1
    18    15    16    1
    19    21    23    1
    20    23    24   ar
    21    24    25   ar
    22    25    26   ar
    23    26    27   ar
    24     6     1   ar
    25    16    11    1
    26    27    23   ar
    27    10     4    1
    28    20    22    1
    29    18    19    1
    30    14    17    1
@<TRIPOS>MOLECULE
*****
 27 30 0 0 0
SMALL
GASTEIGER

@<TRIPOS>ATOM
      1 C           5.5691   -3.4785   23.6179 C.ar    1  UNL1        0.1354
      2 C           4.5578   -2.3833   23.7842 C.ar    1  UNL1        0.0414
      3 C           3.9534   -1.7309   22.5763 C.ar    1  UNL1        0.0177
      4 C           4.3603   -2.1737   21.2021 C.ar    1  UNL1        0.0440
      5 C           5.3716   -3.2689   21.0359 C.ar    1  UNL1       -0.0054
      6 C           5.9760   -3.9213   22.2437 C.ar    1  UNL1        0.0371
      7 C           5.7785   -3.7118   19.6617 C.3     1  UNL1        0.0295
      8 C           5.1741   -3.0594   18.4538 C.3     1  UNL1        0.0261
      9 C           4.1627   -1.9641   18.6200 C.3     1  UNL1        0.0910
     10 N           3.7558   -1.5213   19.9942 N.pl3   1  UNL1       -0.3093
     11 C           2.7445   -0.4261   20.1605 C.3     1  UNL1        0.0755
     12 C           1.2823   -0.7568   20.2109 C.3     1  UNL1        0.0368
     13 C           0.2709    0.3385   20.3772 C.3     1  UNL1        0.0703
     14 N           0.7218    1.7644   20.4930 N.3     1  UNL1       -0.2974
     15 C           2.1840    2.0951   20.4426 C.3     1  UNL1        0.0703
     16 C           3.1954    0.9999   20.2763 C.3     1  UNL1        0.0368
     17 H           0.3719    2.1123   21.3857 H       1  UNL1        0.1232
     18 N           6.1736   -4.1309   24.8258 N.pl3   1  UNL1       -0.1990
     19 H           6.1555   -5.1110   24.9168 H       1  UNL1        0.2985
     20 N           7.4877   -2.0041   25.5329 N.2     1  UNL1       -0.0985
     21 C           6.8056   -3.2900   25.8951 C.2     1  UNL1        0.3224
     22 H           7.5206   -1.7121   24.5933 H       1  UNL1        0.3633
     23 C           6.7554   -3.7350   27.3268 C.ar    1  UNL1        0.1114
     24 C           6.6267   -5.1506   27.8060 C.ar    1  UNL1        0.0144
     25 C           6.6170   -5.1330   29.3060 C.ar    1  UNL1        0.0077
     26 C           6.7397   -3.7066   29.7536 C.ar    1  UNL1        0.0357
     27 S           6.8252   -2.8426   28.5304 S.2     1  UNL1       -0.0792
@<TRIPOS>BOND
     1    20    21    2
     2    21    18    1
     3    18     1    1
     4     1     2   ar
     5     2     3   ar
     6     3     4   ar
     7     4     5   ar
     8     5     6   ar
     9     5     7    1
    10     7     8    1
    11     8     9    1
    12     9    10    1
    13    10    11    1
    14    11    12    1
    15    12    13    1
    16    13    14    1
    17    14    15    1
    18    15    16    1
    19    21    23    1
    20    23    24   ar
    21    24    25   ar
    22    25    26   ar
    23    26    27   ar
    24     6     1   ar
    25    16    11    1
    26    27    23   ar
    27    10     4    1
    28    20    22    1
    29    18    19    1
    30    14    17    1
