@<TRIPOS>MOLECULE
*****
 43 46 0 0 0
SMALL
GASTEIGER

@<TRIPOS>ATOM
      1 C          -5.3640  -18.2779   22.6137 C.ar    1  UNL1        0.2144
      2 C          -4.8155  -17.0444   23.2675 C.ar    1  UNL1        0.1822
      3 O          -3.5005  -16.4793   22.8188 O.2     1  UNL1       -0.4500
      4 C          -2.7339  -17.1477   21.7163 C.ar    1  UNL1        0.1545
      5 C          -1.4189  -16.5826   21.2676 C.ar    1  UNL1        0.0744
      6 C          -0.6523  -17.2511   20.1651 C.ar    1  UNL1        0.1397
      7 O           0.6628  -16.6860   19.7164 O.3     1  UNL1       -0.5053
      8 C          -1.2008  -18.4846   19.5113 C.ar    1  UNL1        0.0735
      9 C          -2.5158  -19.0497   19.9599 C.ar    1  UNL1        0.1428
     10 O          -3.0643  -20.2833   19.3061 O.3     1  UNL1       -0.5052
     11 C          -3.2823  -18.3813   21.0624 C.ar    1  UNL1        0.1104
     12 C          -4.5974  -18.9464   21.5112 C.ar    1  UNL1        0.2382
     13 O          -5.1459  -20.1800   20.8573 O.2     1  UNL1       -0.2830
     14 H           1.0054  -15.9154   20.1248 H       1  UNL1        0.2922
     15 H          -2.5854  -20.7009   18.6174 H       1  UNL1        0.2922
     16 C          -5.5821  -16.3759   24.3701 C.ar    1  UNL1        0.0379
     17 C          -5.2033  -16.6186   25.8010 C.ar    1  UNL1        0.0062
     18 C          -5.9699  -15.9501   26.9034 C.ar    1  UNL1        0.0367
     19 C          -7.1153  -15.0390   26.5750 C.ar    1  UNL1        0.1337
     20 O          -7.8819  -14.3706   27.6775 O.3     1  UNL1       -0.5055
     21 C          -7.4941  -14.7964   25.1441 C.ar    1  UNL1        0.0367
     22 C          -6.7275  -15.4648   24.0416 C.ar    1  UNL1        0.0062
     23 H          -7.6452  -14.5222   28.5714 H       1  UNL1        0.2922
     24 O          -6.6791  -18.8430   23.0624 O.3     1  UNL1       -0.4433
     25 C         -10.3275  -17.6059   22.1093 C.3     1  UNL1        0.2569
     26 C         -10.4069  -18.0361   20.6746 C.3     1  UNL1        0.2392
     27 C          -9.2437  -18.7353   20.0357 C.3     1  UNL1        0.1627
     28 C          -9.3231  -19.1654   18.6009 C.3     1  UNL1        0.0362
     29 O          -8.0011  -19.0043   20.8316 O.3     1  UNL1       -0.3164
     30 C          -7.9217  -18.5741   22.2665 C.3     1  UNL1        0.3334
     31 C          -9.0849  -17.8749   22.9053 C.3     1  UNL1        0.2815
     32 O         -11.4907  -16.9068   22.7482 O.3     1  UNL1       -0.4443
     33 C         -12.9763  -18.1556   24.4754 C.3     1  UNL1        0.1212
     34 C         -12.7383  -17.6724   23.0754 C.2     1  UNL1        0.3177
     35 O         -13.7480  -17.9550   22.0027 O.2     1  UNL1       -0.2501
     36 O         -11.6496  -17.7671   19.8786 O.3     1  UNL1       -0.4458
     37 C         -12.0178  -16.3589   19.5160 C.2     1  UNL1        0.3176
     38 C         -10.9851  -15.4398   18.9340 C.3     1  UNL1        0.1212
     39 O         -13.4187  -15.8698   19.7354 O.2     1  UNL1       -0.2501
     40 O          -9.0054  -17.4448   24.3400 O.3     1  UNL1       -0.4416
     41 C          -9.4258  -18.3861   25.4297 C.2     1  UNL1        0.3178
     42 C          -9.9825  -19.7349   25.0821 C.3     1  UNL1        0.1212
     43 O          -9.2894  -17.9786   26.8668 O.2     1  UNL1       -0.2501
@<TRIPOS>BOND
     1    33    34    1
     2    34    35    2
     3    34    32    1
     4    25    32    1
     5    25    26    1
     6    26    36    1
     7    36    37    1
     8    37    38    1
     9    37    39    2
    10    26    27    1
    11    27    28    1
    12    27    29    1
    13    29    30    1
    14    30    24    1
    15    24     1    1
    16     1     2   ar
    17     2    16    1
    18    16    17   ar
    19    17    18   ar
    20    18    19   ar
    21    19    20    1
    22    19    21   ar
    23    21    22   ar
    24     2     3   ar
    25     3     4   ar
    26     4     5   ar
    27     5     6   ar
    28     6     7    1
    29     6     8   ar
    30     8     9   ar
    31     9    10    1
    32     9    11   ar
    33    11    12   ar
    34    12    13    2
    35    30    31    1
    36    31    40    1
    37    40    41    1
    38    41    42    1
    39    41    43    2
    40    31    25    1
    41    12     1   ar
    42    22    16   ar
    43    11     4   ar
    44    20    23    1
    45     7    14    1
    46    10    15    1
@<TRIPOS>MOLECULE
*****
 43 46 0 0 0
SMALL
GASTEIGER

@<TRIPOS>ATOM
      1 C           6.9446   -2.9244   23.6958 C.ar    1  UNL1        0.2144
      2 C           6.4607   -2.8122   25.1112 C.ar    1  UNL1        0.1822
      3 O           6.5797   -3.9842   26.0397 O.2     1  UNL1       -0.4500
      4 C           7.1826   -5.2686   25.5528 C.ar    1  UNL1        0.1545
      5 C           7.3017   -6.4406   26.4813 C.ar    1  UNL1        0.0744
      6 C           7.9045   -7.7249   25.9943 C.ar    1  UNL1        0.1397
      7 O           8.0236   -8.8970   26.9228 O.3     1  UNL1       -0.5053
      8 C           8.3884   -7.8371   24.5790 C.ar    1  UNL1        0.0735
      9 C           8.2694   -6.6651   23.6505 C.ar    1  UNL1        0.1428
     10 O           8.7533   -6.7773   22.2351 O.3     1  UNL1       -0.5052
     11 C           7.6665   -5.3808   24.1374 C.ar    1  UNL1        0.1104
     12 C           7.5474   -4.2087   23.2089 C.ar    1  UNL1        0.2382
     13 O           8.0313   -4.3209   21.7936 O.2     1  UNL1       -0.2830
     14 H           7.7214   -8.8270   27.8070 H       1  UNL1        0.2922
     15 H           9.1299   -7.5796   21.9310 H       1  UNL1        0.2922
     16 C           5.8578   -1.5278   25.5981 C.ar    1  UNL1        0.0379
     17 C           6.6980   -0.2879   25.6784 C.ar    1  UNL1        0.0062
     18 C           6.0951    0.9964   26.1652 C.ar    1  UNL1        0.0367
     19 C           4.6519    1.0407   26.5718 C.ar    1  UNL1        0.1337
     20 O           4.0490    2.3251   27.0587 O.3     1  UNL1       -0.5055
     21 C           3.8117   -0.1993   26.4916 C.ar    1  UNL1        0.0367
     22 C           4.4146   -1.4835   26.0047 C.ar    1  UNL1        0.0062
     23 H           4.5739    3.0996   27.1089 H       1  UNL1        0.2922
     24 O           6.8255   -1.7523   22.7674 O.3     1  UNL1       -0.4433
     25 C           3.9230   -1.4939   20.0731 C.3     1  UNL1        0.2569
     26 C           2.8648   -0.7832   20.8637 C.3     1  UNL1        0.2392
     27 C           3.1268   -0.3954   22.2889 C.3     1  UNL1        0.1627
     28 C           2.0686    0.3153   23.0795 C.3     1  UNL1        0.0362
     29 O           4.4470   -0.7185   22.9234 O.3     1  UNL1       -0.3164
     30 C           5.5053   -1.4292   22.1328 C.3     1  UNL1        0.3334
     31 C           5.2433   -1.8169   20.7077 C.3     1  UNL1        0.2815
     32 O           3.6610   -1.8815   18.6480 O.3     1  UNL1       -0.4443
     33 C           4.5270    0.4370   17.8577 C.3     1  UNL1        0.1212
     34 C           3.9462   -0.9095   17.5417 C.2     1  UNL1        0.3177
     35 O           3.6507   -1.2839   16.1196 O.2     1  UNL1       -0.2501
     36 O           1.5446   -0.4601   20.2291 O.3     1  UNL1       -0.4458
     37 C           1.3884    0.7927   19.4191 C.2     1  UNL1        0.3176
     38 C           1.8849    2.1014   19.9586 C.3     1  UNL1        0.1212
     39 O           0.7356    0.7369   18.0698 O.2     1  UNL1       -0.2501
     40 O           6.3015   -2.5276   19.9171 O.3     1  UNL1       -0.4416
     41 C           7.1373   -1.7680   18.9299 C.2     1  UNL1        0.3178
     42 C           8.0184   -0.6480   19.3981 C.3     1  UNL1        0.1212
     43 O           7.0919   -2.1284   17.4746 O.2     1  UNL1       -0.2501
@<TRIPOS>BOND
     1    33    34    1
     2    34    35    2
     3    34    32    1
     4    25    32    1
     5    25    26    1
     6    26    36    1
     7    36    37    1
     8    37    38    1
     9    37    39    2
    10    26    27    1
    11    27    28    1
    12    27    29    1
    13    29    30    1
    14    30    24    1
    15    24     1    1
    16     1     2   ar
    17     2    16    1
    18    16    17   ar
    19    17    18   ar
    20    18    19   ar
    21    19    20    1
    22    19    21   ar
    23    21    22   ar
    24     2     3   ar
    25     3     4   ar
    26     4     5   ar
    27     5     6   ar
    28     6     7    1
    29     6     8   ar
    30     8     9   ar
    31     9    10    1
    32     9    11   ar
    33    11    12   ar
    34    12    13    2
    35    30    31    1
    36    31    40    1
    37    40    41    1
    38    41    42    1
    39    41    43    2
    40    31    25    1
    41    12     1   ar
    42    22    16   ar
    43    11     4   ar
    44    20    23    1
    45     7    14    1
    46    10    15    1
@<TRIPOS>MOLECULE
*****
 43 46 0 0 0
SMALL
GASTEIGER

@<TRIPOS>ATOM
      1 C           0.1490    2.7339   22.6213 C.ar    1  UNL1        0.2144
      2 C           0.8255    1.7881   23.5688 C.ar    1  UNL1        0.1822
      3 O           1.6472    0.6521   23.0356 O.2     1  UNL1       -0.4500
      4 C           1.7923    0.4618   21.5548 C.ar    1  UNL1        0.1545
      5 C           2.6139   -0.6742   21.0216 C.ar    1  UNL1        0.0744
      6 C           2.7590   -0.8644   19.5408 C.ar    1  UNL1        0.1397
      7 O           3.5807   -2.0005   19.0075 O.3     1  UNL1       -0.5053
      8 C           2.0825    0.0813   18.5933 C.ar    1  UNL1        0.0735
      9 C           1.2609    1.2173   19.1265 C.ar    1  UNL1        0.1428
     10 O           0.5843    2.1631   18.1789 O.3     1  UNL1       -0.5052
     11 C           1.1158    1.4076   20.6072 C.ar    1  UNL1        0.1104
     12 C           0.2941    2.5436   21.1405 C.ar    1  UNL1        0.2382
     13 O          -0.3825    3.4894   20.1929 O.2     1  UNL1       -0.2830
     14 H           4.0033   -2.5913   19.5994 H       1  UNL1        0.2922
     15 H           0.6750    2.0442   17.2539 H       1  UNL1        0.2922
     16 C           0.6804    1.9785   25.0496 C.ar    1  UNL1        0.0379
     17 C          -0.3151    1.1599   25.8170 C.ar    1  UNL1        0.0062
     18 C          -0.4602    1.3502   27.2978 C.ar    1  UNL1        0.0367
     19 C           0.3902    2.3591   28.0111 C.ar    1  UNL1        0.1337
     20 O           0.2450    2.5494   29.4920 O.3     1  UNL1       -0.5055
     21 C           1.3857    3.1777   27.2438 C.ar    1  UNL1        0.0367
     22 C           1.5308    2.9874   25.7630 C.ar    1  UNL1        0.0062
     23 H          -0.3768    2.0381   29.9713 H       1  UNL1        0.2922
     24 O          -0.6727    3.8699   23.1545 O.3     1  UNL1       -0.4433
     25 C          -4.4473    3.7971   24.3780 C.3     1  UNL1        0.2569
     26 C          -5.1655    3.6301   23.0718 C.3     1  UNL1        0.2392
     27 C          -4.3861    3.5430   21.7931 C.3     1  UNL1        0.1627
     28 C          -5.1044    3.3760   20.4868 C.3     1  UNL1        0.0362
     29 O          -2.8885    3.6230   21.8206 O.3     1  UNL1       -0.3164
     30 C          -2.1703    3.7900   23.1269 C.3     1  UNL1        0.3334
     31 C          -2.9497    3.8770   24.4056 C.3     1  UNL1        0.2815
     32 O          -5.2267    3.8841   25.6566 O.3     1  UNL1       -0.4443
     33 C          -5.4346    6.4720   25.5571 C.3     1  UNL1        0.1212
     34 C          -5.3770    5.2031   26.3550 C.2     1  UNL1        0.3177
     35 O          -5.4699    5.2531   27.8513 O.2     1  UNL1       -0.2501
     36 O          -6.6631    3.5501   23.0442 O.3     1  UNL1       -0.4458
     37 C          -7.4812    4.8074   23.0320 C.2     1  UNL1        0.3176
     38 C          -7.0403    5.9811   22.2086 C.3     1  UNL1        0.1212
     39 O          -8.7402    4.8909   23.8431 O.2     1  UNL1       -0.2501
     40 O          -2.2315    4.0440   25.7118 O.3     1  UNL1       -0.4416
     41 C          -1.7717    5.4041   26.1464 C.2     1  UNL1        0.3178
     42 C          -1.3608    5.6375   27.5700 C.3     1  UNL1        0.1212
     43 O          -1.7229    6.5308   25.1573 O.2     1  UNL1       -0.2501
@<TRIPOS>BOND
     1    33    34    1
     2    34    35    2
     3    34    32    1
     4    25    32    1
     5    25    26    1
     6    26    36    1
     7    36    37    1
     8    37    38    1
     9    37    39    2
    10    26    27    1
    11    27    28    1
    12    27    29    1
    13    29    30    1
    14    30    24    1
    15    24     1    1
    16     1     2   ar
    17     2    16    1
    18    16    17   ar
    19    17    18   ar
    20    18    19   ar
    21    19    20    1
    22    19    21   ar
    23    21    22   ar
    24     2     3   ar
    25     3     4   ar
    26     4     5   ar
    27     5     6   ar
    28     6     7    1
    29     6     8   ar
    30     8     9   ar
    31     9    10    1
    32     9    11   ar
    33    11    12   ar
    34    12    13    2
    35    30    31    1
    36    31    40    1
    37    40    41    1
    38    41    42    1
    39    41    43    2
    40    31    25    1
    41    12     1   ar
    42    22    16   ar
    43    11     4   ar
    44    20    23    1
    45     7    14    1
    46    10    15    1
@<TRIPOS>MOLECULE
*****
 43 46 0 0 0
SMALL
GASTEIGER

@<TRIPOS>ATOM
      1 C           2.9931    1.1367   23.9643 C.ar    1  UNL1        0.2144
      2 C           1.5593    1.3246   23.5657 C.ar    1  UNL1        0.1822
      3 O           0.4770    1.2511   24.6016 O.2     1  UNL1       -0.4500
      4 C           0.8285    0.9897   26.0363 C.ar    1  UNL1        0.1545
      5 C          -0.2537    0.9161   27.0722 C.ar    1  UNL1        0.0744
      6 C           0.0978    0.6548   28.5068 C.ar    1  UNL1        0.1397
      7 O          -0.9845    0.5812   29.5428 O.3     1  UNL1       -0.5053
      8 C           1.5316    0.4669   28.9054 C.ar    1  UNL1        0.0735
      9 C           2.6139    0.5404   27.8695 C.ar    1  UNL1        0.1428
     10 O           4.0477    0.3526   28.2681 O.3     1  UNL1       -0.5052
     11 C           2.2624    0.8018   26.4349 C.ar    1  UNL1        0.1104
     12 C           3.3447    0.8754   25.3989 C.ar    1  UNL1        0.2382
     13 O           4.7785    0.6875   25.7975 O.2     1  UNL1       -0.2830
     14 H          -1.8801    0.6986   29.2939 H       1  UNL1        0.2922
     15 H           4.2673    0.1893   29.1643 H       1  UNL1        0.2922
     16 C           1.2078    1.5860   22.1310 C.ar    1  UNL1        0.0379
     17 C           0.7631    0.4564   21.2500 C.ar    1  UNL1        0.0062
     18 C           0.4116    0.7178   19.8154 C.ar    1  UNL1        0.0367
     19 C           0.5048    2.1088   19.2618 C.ar    1  UNL1        0.1337
     20 O           0.1533    2.3702   17.8272 O.3     1  UNL1       -0.5055
     21 C           0.9496    3.2384   20.1429 C.ar    1  UNL1        0.0367
     22 C           1.3011    2.9770   21.5774 C.ar    1  UNL1        0.0062
     23 H          -0.1245    1.6646   17.2768 H       1  UNL1        0.2922
     24 O           4.0754    1.2103   22.9283 O.3     1  UNL1       -0.4433
     25 C           4.8127   -1.2346   19.8904 C.3     1  UNL1        0.2569
     26 C           5.2352   -2.4748   20.6207 C.3     1  UNL1        0.2392
     27 C           5.2711   -2.4867   22.1202 C.3     1  UNL1        0.1627
     28 C           5.6936   -3.7269   22.8505 C.3     1  UNL1        0.0362
     29 O           4.8845   -1.2583   22.8894 O.3     1  UNL1       -0.3164
     30 C           4.4620   -0.0181   22.1591 C.3     1  UNL1        0.3334
     31 C           4.4261   -0.0062   20.6596 C.3     1  UNL1        0.2815
     32 O           4.7769   -1.2228   18.3909 O.3     1  UNL1       -0.4443
     33 C           6.3796    0.2948   17.0203 C.3     1  UNL1        0.1212
     34 C           6.0459   -1.0428   17.6117 C.2     1  UNL1        0.3177
     35 O           6.9812   -2.2003   17.4238 O.2     1  UNL1       -0.2501
     36 O           5.6218   -3.7032   19.8515 O.3     1  UNL1       -0.4458
     37 C           4.5608   -4.6272   19.3313 C.2     1  UNL1        0.3176
     38 C           3.1471   -4.1447   19.1949 C.3     1  UNL1        0.1212
     39 O           4.9136   -6.0337   18.9476 O.2     1  UNL1       -0.2501
     40 O           4.0037    1.2340   19.9293 O.3     1  UNL1       -0.4416
     41 C           5.0074    2.3087   19.6333 C.2     1  UNL1        0.3178
     42 C           4.6372    3.4550   18.7395 C.3     1  UNL1        0.1212
     43 O           6.3812    2.2371   20.2312 O.2     1  UNL1       -0.2501
@<TRIPOS>BOND
     1    33    34    1
     2    34    35    2
     3    34    32    1
     4    25    32    1
     5    25    26    1
     6    26    36    1
     7    36    37    1
     8    37    38    1
     9    37    39    2
    10    26    27    1
    11    27    28    1
    12    27    29    1
    13    29    30    1
    14    30    24    1
    15    24     1    1
    16     1     2   ar
    17     2    16    1
    18    16    17   ar
    19    17    18   ar
    20    18    19   ar
    21    19    20    1
    22    19    21   ar
    23    21    22   ar
    24     2     3   ar
    25     3     4   ar
    26     4     5   ar
    27     5     6   ar
    28     6     7    1
    29     6     8   ar
    30     8     9   ar
    31     9    10    1
    32     9    11   ar
    33    11    12   ar
    34    12    13    2
    35    30    31    1
    36    31    40    1
    37    40    41    1
    38    41    42    1
    39    41    43    2
    40    31    25    1
    41    12     1   ar
    42    22    16   ar
    43    11     4   ar
    44    20    23    1
    45     7    14    1
    46    10    15    1
@<TRIPOS>MOLECULE
*****
 43 46 0 0 0
SMALL
GASTEIGER

@<TRIPOS>ATOM
      1 C           6.6739   -2.7701   24.2043 C.ar    1  UNL1        0.2144
      2 C           6.1554   -2.7184   25.6109 C.ar    1  UNL1        0.1822
      3 O           6.2486   -3.9305   26.4896 O.2     1  UNL1       -0.4500
      4 C           6.8603   -5.1943   25.9617 C.ar    1  UNL1        0.1545
      5 C           6.9535   -6.4064   26.8404 C.ar    1  UNL1        0.0744
      6 C           7.5651   -7.6702   26.3125 C.ar    1  UNL1        0.1397
      7 O           7.6584   -8.8823   27.1912 O.3     1  UNL1       -0.5053
      8 C           8.0836   -7.7219   24.9059 C.ar    1  UNL1        0.0735
      9 C           7.9904   -6.5098   24.0272 C.ar    1  UNL1        0.1428
     10 O           8.5088   -6.5615   22.6206 O.3     1  UNL1       -0.5052
     11 C           7.3788   -5.2460   24.5551 C.ar    1  UNL1        0.1104
     12 C           7.2855   -4.0339   23.6764 C.ar    1  UNL1        0.2382
     13 O           7.8040   -4.0856   22.2698 O.2     1  UNL1       -0.2830
     14 H           7.3345   -8.8501   28.0699 H       1  UNL1        0.2922
     15 H           8.8909   -7.3510   22.2908 H       1  UNL1        0.2922
     16 C           5.5438   -1.4545   26.1388 C.ar    1  UNL1        0.0379
     17 C           6.4238   -0.3449   26.6328 C.ar    1  UNL1        0.0062
     18 C           5.8121    0.9189   27.1607 C.ar    1  UNL1        0.0367
     19 C           4.3204    1.0730   27.1945 C.ar    1  UNL1        0.1337
     20 O           3.7087    2.3369   27.7224 O.3     1  UNL1       -0.5055
     21 C           3.4404   -0.0367   26.7004 C.ar    1  UNL1        0.0367
     22 C           4.0521   -1.3005   26.1726 C.ar    1  UNL1        0.0062
     23 H           4.2585    3.0301   28.0310 H       1  UNL1        0.2922
     24 O           6.5807   -1.5580   23.3256 O.3     1  UNL1       -0.4433
     25 C           3.3500    0.0494   21.6735 C.3     1  UNL1        0.2569
     26 C           3.0095   -0.9900   20.6471 C.3     1  UNL1        0.2392
     27 C           3.8594   -2.2188   20.5134 C.3     1  UNL1        0.1627
     28 C           3.5189   -3.2582   19.4870 C.3     1  UNL1        0.0362
     29 O           5.0498   -2.4081   21.4062 O.3     1  UNL1       -0.3164
     30 C           5.3903   -1.3686   22.4327 C.3     1  UNL1        0.3334
     31 C           4.5404   -0.1399   22.5663 C.3     1  UNL1        0.2815
     32 O           2.5002    1.2781   21.8071 O.3     1  UNL1       -0.4443
     33 C           1.0351    1.0754   23.9432 C.3     1  UNL1        0.1212
     34 C           1.1487    1.1888   22.4517 C.2     1  UNL1        0.3177
     35 O          -0.0892    1.2130   21.6050 O.2     1  UNL1       -0.2501
     36 O           1.8191   -0.8007   19.7542 O.3     1  UNL1       -0.4458
     37 C           1.8867    0.1659   18.6091 C.2     1  UNL1        0.3176
     38 C           3.1746    0.3576   17.8645 C.3     1  UNL1        0.1212
     39 O           0.6663    0.9407   18.2086 O.2     1  UNL1       -0.2501
     40 O           4.8809    0.8995   23.5928 O.3     1  UNL1       -0.4416
     41 C           5.8542    1.9914   23.2602 C.2     1  UNL1        0.3178
     42 C           7.2636    1.9203   23.7685 C.3     1  UNL1        0.1212
     43 O           5.4179    3.1545   22.4194 O.2     1  UNL1       -0.2501
@<TRIPOS>BOND
     1    33    34    1
     2    34    35    2
     3    34    32    1
     4    25    32    1
     5    25    26    1
     6    26    36    1
     7    36    37    1
     8    37    38    1
     9    37    39    2
    10    26    27    1
    11    27    28    1
    12    27    29    1
    13    29    30    1
    14    30    24    1
    15    24     1    1
    16     1     2   ar
    17     2    16    1
    18    16    17   ar
    19    17    18   ar
    20    18    19   ar
    21    19    20    1
    22    19    21   ar
    23    21    22   ar
    24     2     3   ar
    25     3     4   ar
    26     4     5   ar
    27     5     6   ar
    28     6     7    1
    29     6     8   ar
    30     8     9   ar
    31     9    10    1
    32     9    11   ar
    33    11    12   ar
    34    12    13    2
    35    30    31    1
    36    31    40    1
    37    40    41    1
    38    41    42    1
    39    41    43    2
    40    31    25    1
    41    12     1   ar
    42    22    16   ar
    43    11     4   ar
    44    20    23    1
    45     7    14    1
    46    10    15    1
@<TRIPOS>MOLECULE
*****
 43 46 0 0 0
SMALL
GASTEIGER

@<TRIPOS>ATOM
      1 C           6.1599   -1.0575   29.7417 C.ar    1  UNL1        0.2144
      2 C           6.0839   -2.0740   30.8421 C.ar    1  UNL1        0.1822
      3 O           6.2523   -3.5314   30.5299 O.2     1  UNL1       -0.4500
      4 C           6.4968   -3.9724   29.1171 C.ar    1  UNL1        0.1545
      5 C           6.6652   -5.4298   28.8048 C.ar    1  UNL1        0.0744
      6 C           6.9096   -5.8707   27.3921 C.ar    1  UNL1        0.1397
      7 O           7.0780   -7.3282   27.0797 O.3     1  UNL1       -0.5053
      8 C           6.9856   -4.8542   26.2917 C.ar    1  UNL1        0.0735
      9 C           6.8172   -3.3968   26.6039 C.ar    1  UNL1        0.1428
     10 O           6.8932   -2.3803   25.5035 O.3     1  UNL1       -0.5052
     11 C           6.5728   -2.9559   28.0166 C.ar    1  UNL1        0.1104
     12 C           6.4044   -1.4984   28.3290 C.ar    1  UNL1        0.2382
     13 O           6.4804   -0.4820   27.2286 O.2     1  UNL1       -0.2830
     14 H           7.0305   -7.9632   27.7671 H       1  UNL1        0.2922
     15 H           7.0459   -2.6558   24.6210 H       1  UNL1        0.2922
     16 C           5.8395   -1.6331   32.2549 C.ar    1  UNL1        0.0379
     17 C           4.5412   -1.9632   32.9297 C.ar    1  UNL1        0.0062
     18 C           4.2968   -1.5222   34.3424 C.ar    1  UNL1        0.0367
     19 C           5.3508   -0.7511   35.0803 C.ar    1  UNL1        0.1337
     20 O           5.1063   -0.3101   36.4931 O.3     1  UNL1       -0.5055
     21 C           6.6491   -0.4210   34.4056 C.ar    1  UNL1        0.0367
     22 C           6.8935   -0.8619   32.9929 C.ar    1  UNL1        0.0062
     23 H           4.2953   -0.5164   36.9146 H       1  UNL1        0.2922
     24 O           5.9915    0.3999   30.0541 O.3     1  UNL1       -0.4433
     25 C           2.2678    1.7668   29.9300 C.3     1  UNL1        0.2569
     26 C           1.9904    1.9668   31.3905 C.3     1  UNL1        0.2392
     27 C           3.0468    1.6446   32.4055 C.3     1  UNL1        0.1627
     28 C           2.7694    1.8446   33.8660 C.3     1  UNL1        0.0362
     29 O           4.3805    1.1223   31.9601 O.3     1  UNL1       -0.3164
     30 C           4.6578    0.9222   30.4995 C.3     1  UNL1        0.3334
     31 C           3.6015    1.2445   29.4845 C.3     1  UNL1        0.2815
     32 O           1.2114    2.0890   28.9150 O.3     1  UNL1       -0.4443
     33 C          -0.8900    1.3874   27.5579 C.3     1  UNL1        0.1212
     34 C           0.1166    1.1032   28.6331 C.2     1  UNL1        0.3177
     35 O           0.0282   -0.1668   29.4264 O.2     1  UNL1       -0.2501
     36 O           0.6567    2.4891   31.8359 O.3     1  UNL1       -0.4458
     37 C           0.4222    3.9680   31.9254 C.2     1  UNL1        0.3176
     38 C           0.3153    4.6306   33.2669 C.3     1  UNL1        0.1212
     39 O           0.2947    4.7843   30.6734 O.2     1  UNL1       -0.2501
     40 O           3.8788    1.0444   28.0241 O.3     1  UNL1       -0.4416
     41 C           3.2396   -0.0961   27.2886 C.2     1  UNL1        0.3178
     42 C           3.0212   -0.0049   25.8074 C.3     1  UNL1        0.1212
     43 O           2.8189   -1.3276   28.0343 O.2     1  UNL1       -0.2501
@<TRIPOS>BOND
     1    33    34    1
     2    34    35    2
     3    34    32    1
     4    25    32    1
     5    25    26    1
     6    26    36    1
     7    36    37    1
     8    37    38    1
     9    37    39    2
    10    26    27    1
    11    27    28    1
    12    27    29    1
    13    29    30    1
    14    30    24    1
    15    24     1    1
    16     1     2   ar
    17     2    16    1
    18    16    17   ar
    19    17    18   ar
    20    18    19   ar
    21    19    20    1
    22    19    21   ar
    23    21    22   ar
    24     2     3   ar
    25     3     4   ar
    26     4     5   ar
    27     5     6   ar
    28     6     7    1
    29     6     8   ar
    30     8     9   ar
    31     9    10    1
    32     9    11   ar
    33    11    12   ar
    34    12    13    2
    35    30    31    1
    36    31    40    1
    37    40    41    1
    38    41    42    1
    39    41    43    2
    40    31    25    1
    41    12     1   ar
    42    22    16   ar
    43    11     4   ar
    44    20    23    1
    45     7    14    1
    46    10    15    1
@<TRIPOS>MOLECULE
*****
 43 46 0 0 0
SMALL
GASTEIGER

@<TRIPOS>ATOM
      1 C           7.5267   -2.9589   24.2858 C.ar    1  UNL1        0.2144
      2 C           7.4214   -3.9790   23.1911 C.ar    1  UNL1        0.1822
      3 O           7.4618   -5.4414   23.5222 O.2     1  UNL1       -0.4500
      4 C           7.6076   -5.8838   24.9481 C.ar    1  UNL1        0.1545
      5 C           7.6481   -7.3462   25.2792 C.ar    1  UNL1        0.0744
      6 C           7.7939   -7.7886   26.7050 C.ar    1  UNL1        0.1397
      7 O           7.8344   -9.2510   27.0362 O.3     1  UNL1       -0.5053
      8 C           7.8993   -6.7685   27.7997 C.ar    1  UNL1        0.0735
      9 C           7.8588   -5.3061   27.4686 C.ar    1  UNL1        0.1428
     10 O           7.9642   -4.2860   28.5633 O.3     1  UNL1       -0.5052
     11 C           7.7130   -4.8638   26.0428 C.ar    1  UNL1        0.1104
     12 C           7.6725   -3.4013   25.7116 C.ar    1  UNL1        0.2382
     13 O           7.7779   -2.3812   26.8063 O.2     1  UNL1       -0.2830
     14 H           7.7685   -9.8883   26.3524 H       1  UNL1        0.2922
     15 H           8.0553   -4.5624   29.4540 H       1  UNL1        0.2922
     16 C           7.2755   -3.5366   21.7652 C.ar    1  UNL1        0.0379
     17 C           8.4630   -3.0025   21.0205 C.ar    1  UNL1        0.0062
     18 C           8.3171   -2.5601   19.5946 C.ar    1  UNL1        0.0367
     19 C           6.9838   -2.6518   18.9136 C.ar    1  UNL1        0.1337
     20 O           6.8380   -2.2094   17.4877 O.3     1  UNL1       -0.5055
     21 C           5.7964   -3.1858   19.6583 C.ar    1  UNL1        0.0367
     22 C           5.9422   -3.6282   21.0841 C.ar    1  UNL1        0.0062
     23 H           7.5798   -1.8757   17.0225 H       1  UNL1        0.2922
     24 O           7.4863   -1.4964   23.9546 O.3     1  UNL1       -0.4433
     25 C           3.7400   -0.3468   23.3274 C.3     1  UNL1        0.2569
     26 C           3.8545    0.2591   21.9601 C.3     1  UNL1        0.2392
     27 C           5.1797    0.2799   21.2575 C.3     1  UNL1        0.1627
     28 C           5.2942    0.8859   19.8902 C.3     1  UNL1        0.0362
     29 O           6.3903   -0.3053   21.9223 O.3     1  UNL1       -0.3164
     30 C           6.2757   -0.9112   23.2898 C.3     1  UNL1        0.3334
     31 C           4.9505   -0.9320   23.9923 C.3     1  UNL1        0.2815
     32 O           2.4148   -0.3675   24.0299 O.3     1  UNL1       -0.4443
     33 C           0.4018    1.0797   24.8066 C.3     1  UNL1        0.1212
     34 C           1.8820    0.8835   24.6632 C.2     1  UNL1        0.3177
     35 O           2.8294    1.9381   25.1532 O.2     1  UNL1       -0.2501
     36 O           2.6439    0.8443   21.2952 O.3     1  UNL1       -0.4458
     37 C           1.5927   -0.0592   20.7220 C.2     1  UNL1        0.3176
     38 C           1.9934   -1.2591   19.9160 C.3     1  UNL1        0.1212
     39 O           0.1408    0.2372   20.9547 O.2     1  UNL1       -0.2501
     40 O           4.8360   -1.5379   25.3596 O.3     1  UNL1       -0.4416
     41 C           4.7398   -0.6526   26.5667 C.2     1  UNL1        0.3178
     42 C           3.6481   -0.8711   27.5719 C.3     1  UNL1        0.1212
     43 O           5.7352    0.4512   26.7684 O.2     1  UNL1       -0.2501
@<TRIPOS>BOND
     1    33    34    1
     2    34    35    2
     3    34    32    1
     4    25    32    1
     5    25    26    1
     6    26    36    1
     7    36    37    1
     8    37    38    1
     9    37    39    2
    10    26    27    1
    11    27    28    1
    12    27    29    1
    13    29    30    1
    14    30    24    1
    15    24     1    1
    16     1     2   ar
    17     2    16    1
    18    16    17   ar
    19    17    18   ar
    20    18    19   ar
    21    19    20    1
    22    19    21   ar
    23    21    22   ar
    24     2     3   ar
    25     3     4   ar
    26     4     5   ar
    27     5     6   ar
    28     6     7    1
    29     6     8   ar
    30     8     9   ar
    31     9    10    1
    32     9    11   ar
    33    11    12   ar
    34    12    13    2
    35    30    31    1
    36    31    40    1
    37    40    41    1
    38    41    42    1
    39    41    43    2
    40    31    25    1
    41    12     1   ar
    42    22    16   ar
    43    11     4   ar
    44    20    23    1
    45     7    14    1
    46    10    15    1
@<TRIPOS>MOLECULE
*****
 43 46 0 0 0
SMALL
GASTEIGER

@<TRIPOS>ATOM
      1 C           7.1663   -2.5624   23.9690 C.ar    1  UNL1        0.2144
      2 C           6.5604   -2.4562   25.3371 C.ar    1  UNL1        0.1822
      3 O           6.4564   -3.6732   26.2078 O.2     1  UNL1       -0.4500
      4 C           6.9583   -4.9964   25.7104 C.ar    1  UNL1        0.1545
      5 C           6.8543   -6.2133   26.5811 C.ar    1  UNL1        0.0744
      6 C           7.3562   -7.5364   26.0837 C.ar    1  UNL1        0.1397
      7 O           7.2522   -8.7535   26.9544 O.3     1  UNL1       -0.5053
      8 C           7.9620   -7.6426   24.7157 C.ar    1  UNL1        0.0735
      9 C           8.0661   -6.4256   23.8450 C.ar    1  UNL1        0.1428
     10 O           8.6719   -6.5318   22.4769 O.3     1  UNL1       -0.5052
     11 C           7.5642   -5.1025   24.3423 C.ar    1  UNL1        0.1104
     12 C           7.6682   -3.8855   23.4716 C.ar    1  UNL1        0.2382
     13 O           8.2741   -3.9916   22.1036 O.2     1  UNL1       -0.2830
     14 H           6.8737   -8.6872   27.8090 H       1  UNL1        0.2922
     15 H           8.9855   -7.3583   22.1662 H       1  UNL1        0.2922
     16 C           6.0585   -1.1330   25.8345 C.ar    1  UNL1        0.0379
     17 C           4.5839   -0.8912   25.9651 C.ar    1  UNL1        0.0062
     18 C           4.0821    0.4320   26.4625 C.ar    1  UNL1        0.0367
     19 C           5.0549    1.5133   26.8291 C.ar    1  UNL1        0.1337
     20 O           4.5530    2.8365   27.3265 O.3     1  UNL1       -0.5055
     21 C           6.5294    1.2715   26.6985 C.ar    1  UNL1        0.0367
     22 C           7.0313   -0.0517   26.2011 C.ar    1  UNL1        0.0062
     23 H           3.6318    2.9876   27.4081 H       1  UNL1        0.2922
     24 O           7.2703   -1.3453   23.0983 O.3     1  UNL1       -0.4433
     25 C           3.9577   -0.5724   21.0540 C.3     1  UNL1        0.2569
     26 C           3.5388    0.7277   21.6740 C.3     1  UNL1        0.2392
     27 C           4.3637    1.3368   22.7688 C.3     1  UNL1        0.1627
     28 C           3.9448    2.6368   23.3888 C.3     1  UNL1        0.0362
     29 O           5.6076    0.6458   23.2436 O.3     1  UNL1       -0.3164
     30 C           6.0265   -0.6543   22.6235 C.3     1  UNL1        0.3334
     31 C           5.2015   -1.2634   21.5288 C.3     1  UNL1        0.2815
     32 O           3.1327   -1.1814   19.9593 O.3     1  UNL1       -0.4443
     33 C           4.4737   -1.2822   17.7363 C.3     1  UNL1        0.1212
     34 C           3.3282   -0.7403   18.5390 C.2     1  UNL1        0.3177
     35 O           2.3782    0.2426   17.9214 O.2     1  UNL1       -0.2501
     36 O           2.2949    1.4186   21.1992 O.3     1  UNL1       -0.4458
     37 C           0.9531    0.9798   21.7063 C.2     1  UNL1        0.3176
     38 C           0.5339    1.3162   23.1067 C.3     1  UNL1        0.1212
     39 O           0.0306    0.2046   20.8130 O.2     1  UNL1       -0.2501
     40 O           5.6204   -2.5634   20.9088 O.3     1  UNL1       -0.4416
     41 C           4.7442   -3.7738   21.0403 C.2     1  UNL1        0.3178
     42 C           4.2248   -4.4606   19.8121 C.3     1  UNL1        0.1212
     43 O           4.3873   -4.2973   22.3999 O.2     1  UNL1       -0.2501
@<TRIPOS>BOND
     1    33    34    1
     2    34    35    2
     3    34    32    1
     4    25    32    1
     5    25    26    1
     6    26    36    1
     7    36    37    1
     8    37    38    1
     9    37    39    2
    10    26    27    1
    11    27    28    1
    12    27    29    1
    13    29    30    1
    14    30    24    1
    15    24     1    1
    16     1     2   ar
    17     2    16    1
    18    16    17   ar
    19    17    18   ar
    20    18    19   ar
    21    19    20    1
    22    19    21   ar
    23    21    22   ar
    24     2     3   ar
    25     3     4   ar
    26     4     5   ar
    27     5     6   ar
    28     6     7    1
    29     6     8   ar
    30     8     9   ar
    31     9    10    1
    32     9    11   ar
    33    11    12   ar
    34    12    13    2
    35    30    31    1
    36    31    40    1
    37    40    41    1
    38    41    42    1
    39    41    43    2
    40    31    25    1
    41    12     1   ar
    42    22    16   ar
    43    11     4   ar
    44    20    23    1
    45     7    14    1
    46    10    15    1
@<TRIPOS>MOLECULE
*****
 43 46 0 0 0
SMALL
GASTEIGER

@<TRIPOS>ATOM
      1 C          -1.0327    3.3420   23.1127 C.ar    1  UNL1        0.2144
      2 C          -1.5766    3.2004   24.5033 C.ar    1  UNL1        0.1822
      3 O          -3.0532    3.3058   24.7455 O.2     1  UNL1       -0.4500
      4 C          -3.9858    3.5529   23.5969 C.ar    1  UNL1        0.1545
      5 C          -5.4623    3.6584   23.8390 C.ar    1  UNL1        0.0744
      6 C          -6.3949    3.9055   22.6904 C.ar    1  UNL1        0.1397
      7 O          -7.8715    4.0110   22.9325 O.3     1  UNL1       -0.5053
      8 C          -5.8509    4.0472   21.2998 C.ar    1  UNL1        0.0735
      9 C          -4.3744    3.9417   21.0576 C.ar    1  UNL1        0.1428
     10 O          -3.8304    4.0834   19.6669 O.3     1  UNL1       -0.5052
     11 C          -3.4418    3.6946   22.2062 C.ar    1  UNL1        0.1104
     12 C          -1.9652    3.5892   21.9641 C.ar    1  UNL1        0.2382
     13 O          -1.4212    3.7308   20.5734 O.2     1  UNL1       -0.2830
     14 H          -8.2114    3.9225   23.8012 H       1  UNL1        0.2922
     15 H          -4.4129    4.2378   18.9495 H       1  UNL1        0.2922
     16 C          -0.6440    2.9532   25.6519 C.ar    1  UNL1        0.0379
     17 C           0.2734    4.0433   26.1210 C.ar    1  UNL1        0.0062
     18 C           1.2060    3.7961   27.2696 C.ar    1  UNL1        0.0367
     19 C           1.2211    2.4589   27.9490 C.ar    1  UNL1        0.1337
     20 O           2.1538    2.2118   29.0976 O.3     1  UNL1       -0.5055
     21 C           0.3037    1.3688   27.4799 C.ar    1  UNL1        0.0367
     22 C          -0.6288    1.6160   26.3314 C.ar    1  UNL1        0.0062
     23 H           2.7269    2.8927   29.3906 H       1  UNL1        0.2922
     24 O           0.4440    3.2366   22.8706 O.3     1  UNL1       -0.4433
     25 C           2.3071   -0.1870   22.1235 C.3     1  UNL1        0.2569
     26 C           2.1115   -0.2984   20.6405 C.3     1  UNL1        0.2392
     27 C           1.3600    0.7685   19.9008 C.3     1  UNL1        0.1627
     28 C           1.1645    0.6570   18.4178 C.3     1  UNL1        0.0362
     29 O           0.8042    1.9468   20.6441 O.3     1  UNL1       -0.3164
     30 C           0.9998    2.0582   22.1272 C.3     1  UNL1        0.3334
     31 C           1.7512    0.9914   22.8668 C.3     1  UNL1        0.2815
     32 O           3.0585   -1.2538   22.8631 O.3     1  UNL1       -0.4443
     33 C           5.2605   -2.6250   22.7167 C.3     1  UNL1        0.1212
     34 C           4.5560   -1.3028   22.7921 C.2     1  UNL1        0.3177
     35 O           5.3491   -0.0296   22.7966 O.2     1  UNL1       -0.2501
     36 O           2.6674   -1.4767   19.8971 O.3     1  UNL1       -0.4458
     37 C           4.0305   -1.3968   19.2763 C.2     1  UNL1        0.3176
     38 C           4.5856   -2.5745   18.5313 C.3     1  UNL1        0.1212
     39 O           4.8385   -0.1391   19.4003 O.2     1  UNL1       -0.2501
     40 O           1.9468    1.1028   24.3498 O.3     1  UNL1       -0.4416
     41 C           3.1573    1.8001   24.8964 C.2     1  UNL1        0.3178
     42 C           4.0189    1.1177   25.9171 C.3     1  UNL1        0.1212
     43 O           3.5061    3.1798   24.4222 O.2     1  UNL1       -0.2501
@<TRIPOS>BOND
     1    33    34    1
     2    34    35    2
     3    34    32    1
     4    25    32    1
     5    25    26    1
     6    26    36    1
     7    36    37    1
     8    37    38    1
     9    37    39    2
    10    26    27    1
    11    27    28    1
    12    27    29    1
    13    29    30    1
    14    30    24    1
    15    24     1    1
    16     1     2   ar
    17     2    16    1
    18    16    17   ar
    19    17    18   ar
    20    18    19   ar
    21    19    20    1
    22    19    21   ar
    23    21    22   ar
    24     2     3   ar
    25     3     4   ar
    26     4     5   ar
    27     5     6   ar
    28     6     7    1
    29     6     8   ar
    30     8     9   ar
    31     9    10    1
    32     9    11   ar
    33    11    12   ar
    34    12    13    2
    35    30    31    1
    36    31    40    1
    37    40    41    1
    38    41    42    1
    39    41    43    2
    40    31    25    1
    41    12     1   ar
    42    22    16   ar
    43    11     4   ar
    44    20    23    1
    45     7    14    1
    46    10    15    1
