@<TRIPOS>MOLECULE
*****
 36 39 0 0 0
SMALL
GASTEIGER

@<TRIPOS>ATOM
      1 C           4.2379   -2.1052   22.1159 C.ar    1  UNL1        0.1370
      2 C           3.2464   -1.0018   21.8944 C.ar    1  UNL1        0.0379
      3 C           2.6954   -0.2423   23.0647 C.ar    1  UNL1        0.0178
      4 C           2.9244   -0.3309   24.5868 C.ar    1  UNL1        0.0504
      5 C           3.7250   -1.3303   23.8056 C.ar    1  UNL1        0.0158
      6 C           4.6785   -2.4493   23.5079 C.ar    1  UNL1        0.0425
      7 C           5.6701   -3.5528   23.7295 C.3     1  UNL1        0.1721
      8 O           6.5801   -4.5077   24.4437 O.3     1  UNL1       -0.3442
      9 C           7.2987   -5.1989   25.5644 C.3     1  UNL1        0.1686
     10 C           7.7393   -5.5429   26.9563 C.2     1  UNL1        0.0036
     11 C           7.8487   -5.4984   28.4516 C.2     1  UNL1        0.0036
     12 C           7.6138   -5.0706   29.8700 C.3     1  UNL1        0.1686
     13 O           7.0629   -4.3112   31.0403 O.3     1  UNL1       -0.3443
     14 C           6.2623   -3.3117   31.8215 C.3     1  UNL1        0.1691
     15 C           5.3087   -2.1927   32.1192 C.ar    1  UNL1        0.0073
     16 C           5.0738   -1.7650   33.5376 C.ar    1  UNL1       -0.0019
     17 C           4.1203   -0.6460   33.8353 C.ar    1  UNL1       -0.0002
     18 C           3.4017    0.0451   32.7147 C.ar    1  UNL1        0.0015
     19 C           3.6366   -0.3826   31.2963 C.ar    1  UNL1        0.0176
     20 C           4.5901   -1.5016   30.9986 C.ar    1  UNL1       -0.0004
     21 C           2.6886    0.5568   30.0628 C.ar    1  UNL1        0.0857
     22 C           1.6687    1.7119   30.0123 C.ar    1  UNL1        0.0399
     23 C           0.9501    2.4031   28.8916 C.ar    1  UNL1        0.1034
     24 N           1.1850    1.9753   27.4733 N.ar    1  UNL1       -0.2120
     25 C           2.1385    0.8564   27.1755 C.ar    1  UNL1        0.2207
     26 N           2.2480    0.9009   28.6709 N.ar    1  UNL1       -0.2135
     27 N           2.3735    0.4285   25.7571 N.pl3   1  UNL1       -0.2825
     28 H           1.7763    1.0553   25.2884 H       1  UNL1        0.1551
     29 O           4.7889   -2.8647   20.9456 O.3     1  UNL1       -0.4742
     30 C           3.9402   -3.0865   19.7288 C.3     1  UNL1        0.2226
     31 C           4.5659   -3.0734   18.3656 C.3     1  UNL1        0.1200
     32 N           4.9916   -1.7743   17.7482 N.3     1  UNL1       -0.2696
     33 C           3.1023    0.0044   17.8769 C.3     1  UNL1        0.0188
     34 C           3.9806   -0.9014   17.0656 C.3     1  UNL1        0.0722
     35 C           6.4283   -1.3482   17.8134 C.3     1  UNL1        0.0722
     36 C           7.4107   -2.1440   18.6207 C.3     1  UNL1        0.0188
@<TRIPOS>BOND
     1    33    34    1
     2    34    32    1
     3    32    35    1
     4    35    36    1
     5    32    31    1
     6    31    30    1
     7    30    29    1
     8    29     1    1
     9     1     2   ar
    10     2     3   ar
    11     3     4   ar
    12     4     5   ar
    13     5     6   ar
    14     6     7    1
    15     7     8    1
    16     8     9    1
    17     9    10    1
    18    10    11    2
    19    11    12    1
    20    12    13    1
    21    13    14    1
    22    14    15    1
    23    15    16   ar
    24    16    17   ar
    25    17    18   ar
    26    18    19   ar
    27    19    20   ar
    28    19    21    1
    29    21    22   ar
    30    22    23   ar
    31    23    24   ar
    32    24    25   ar
    33    25    26   ar
    34    25    27    1
    35     6     1   ar
    36    20    15   ar
    37    26    21   ar
    38    27     4    1
    39    27    28    1
@<TRIPOS>MOLECULE
*****
 36 39 0 0 0
SMALL
GASTEIGER

@<TRIPOS>ATOM
      1 C           2.4159    0.4145   24.9340 C.ar    1  UNL1        0.1370
      2 C           2.7864   -0.0238   23.5482 C.ar    1  UNL1        0.0379
      3 C           3.7715   -1.1379   23.3522 C.ar    1  UNL1        0.0178
      4 C           4.5719   -2.0267   24.3249 C.ar    1  UNL1        0.0504
      5 C           3.6945   -1.0267   25.0178 C.ar    1  UNL1        0.0158
      6 C           3.0305   -0.2614   26.1239 C.ar    1  UNL1        0.0425
      7 C           2.6600    0.1768   27.5098 C.3     1  UNL1        0.1721
      8 O           2.6277    0.2352   29.0082 O.3     1  UNL1       -0.3442
      9 C           2.9374   -0.0933   30.4387 C.3     1  UNL1        0.1686
     10 C           3.5519   -0.7691   31.6284 C.2     1  UNL1        0.0036
     11 C           4.3971   -1.7108   32.4341 C.2     1  UNL1        0.0036
     12 C           5.3709   -2.8046   32.7585 C.3     1  UNL1        0.1686
     13 O           6.3559   -3.9187   32.5624 O.3     1  UNL1       -0.3443
     14 C           7.2334   -4.9187   31.8695 C.3     1  UNL1        0.1691
     15 C           7.8974   -5.6840   30.7634 C.ar    1  UNL1        0.0073
     16 C           8.8712   -6.7779   31.0878 C.ar    1  UNL1       -0.0019
     17 C           9.5352   -7.5431   29.9817 C.ar    1  UNL1       -0.0002
     18 C           9.2254   -7.2146   28.5513 C.ar    1  UNL1        0.0015
     19 C           8.2517   -6.1208   28.2270 C.ar    1  UNL1        0.0176
     20 C           7.5876   -5.3555   29.3330 C.ar    1  UNL1       -0.0004
     21 C           7.9905   -5.8522   26.4486 C.ar    1  UNL1        0.0857
     22 C           8.4784   -6.4223   25.1019 C.ar    1  UNL1        0.0399
     23 C           8.1686   -6.0938   23.6715 C.ar    1  UNL1        0.1034
     24 N           7.1948   -5.0000   23.3471 N.ar    1  UNL1       -0.2120
     25 C           6.5308   -4.2347   24.4532 C.ar    1  UNL1        0.2207
     26 N           7.3759   -5.1763   25.2589 N.ar    1  UNL1       -0.2135
     27 N           5.5570   -3.1408   24.1289 N.pl3   1  UNL1       -0.2825
     28 H           5.5782   -3.1791   23.1454 H       1  UNL1        0.1551
     29 O           1.4309    1.5286   25.1302 O.3     1  UNL1       -0.4742
     30 C          -0.0367    1.2275   25.2050 C.3     1  UNL1        0.2226
     31 C          -0.9133    1.9982   26.1471 C.3     1  UNL1        0.1200
     32 N          -0.6047    2.0145   27.6151 N.3     1  UNL1       -0.2696
     33 C          -0.8777   -0.3845   28.5742 C.3     1  UNL1        0.0188
     34 C          -1.2967    1.0554   28.5376 C.3     1  UNL1        0.0722
     35 C           0.3959    2.9900   28.1602 C.3     1  UNL1        0.0722
     36 C           0.6543    3.0531   29.6365 C.3     1  UNL1        0.0188
@<TRIPOS>BOND
     1    33    34    1
     2    34    32    1
     3    32    35    1
     4    35    36    1
     5    32    31    1
     6    31    30    1
     7    30    29    1
     8    29     1    1
     9     1     2   ar
    10     2     3   ar
    11     3     4   ar
    12     4     5   ar
    13     5     6   ar
    14     6     7    1
    15     7     8    1
    16     8     9    1
    17     9    10    1
    18    10    11    2
    19    11    12    1
    20    12    13    1
    21    13    14    1
    22    14    15    1
    23    15    16   ar
    24    16    17   ar
    25    17    18   ar
    26    18    19   ar
    27    19    20   ar
    28    19    21    1
    29    21    22   ar
    30    22    23   ar
    31    23    24   ar
    32    24    25   ar
    33    25    26   ar
    34    25    27    1
    35     6     1   ar
    36    20    15   ar
    37    26    21   ar
    38    27     4    1
    39    27    28    1
@<TRIPOS>MOLECULE
*****
 36 39 0 0 0
SMALL
GASTEIGER

@<TRIPOS>ATOM
      1 C           3.8462   -1.6733   22.2029 C.ar    1  UNL1        0.1370
      2 C           4.9336   -2.6930   22.0366 C.ar    1  UNL1        0.0379
      3 C           5.6642   -3.2132   23.2389 C.ar    1  UNL1        0.0178
      4 C           5.5567   -2.9251   24.7496 C.ar    1  UNL1        0.0504
      5 C           4.5850   -2.1362   23.9229 C.ar    1  UNL1        0.0158
      6 C           3.4893   -1.1739   23.5716 C.ar    1  UNL1        0.0425
      7 C           2.4018   -0.1543   23.7380 C.3     1  UNL1        0.1721
      8 O           1.4537    0.7998   24.4020 O.3     1  UNL1       -0.3442
      9 C           0.7594    1.5731   25.4835 C.3     1  UNL1        0.1686
     10 C           0.4025    2.0725   26.8522 C.2     1  UNL1        0.0036
     11 C           0.4261    2.2377   28.3429 C.2     1  UNL1        0.0036
     12 C           0.8274    2.0488   29.7758 C.3     1  UNL1        0.1686
     13 O           1.5580    1.5285   30.9781 O.3     1  UNL1       -0.3443
     14 C           2.5298    0.7396   31.8047 C.3     1  UNL1        0.1691
     15 C           3.6255   -0.2227   32.1561 C.ar    1  UNL1        0.0073
     16 C           4.0268   -0.4116   33.5890 C.ar    1  UNL1       -0.0019
     17 C           5.1225   -1.3739   33.9404 C.ar    1  UNL1       -0.0002
     18 C           5.8168   -2.1472   32.8588 C.ar    1  UNL1        0.0015
     19 C           5.4155   -1.9583   31.4259 C.ar    1  UNL1        0.0176
     20 C           4.3199   -0.9960   31.0746 C.ar    1  UNL1       -0.0004
     21 C           6.3554   -2.9697   30.2442 C.ar    1  UNL1        0.0857
     22 C           7.4913   -4.0121   30.2506 C.ar    1  UNL1        0.0399
     23 C           8.1857   -4.7855   29.1691 C.ar    1  UNL1        0.1034
     24 N           7.7844   -4.5966   27.7362 N.ar    1  UNL1       -0.2120
     25 C           6.6887   -3.6343   27.3849 C.ar    1  UNL1        0.2207
     26 N           6.7123   -3.4690   28.8755 N.ar    1  UNL1       -0.2135
     27 N           6.2873   -3.4453   25.9519 N.pl3   1  UNL1       -0.2825
     28 H           6.9096   -4.0715   25.5161 H       1  UNL1        0.1551
     29 O           3.1156   -1.1530   21.0006 O.3     1  UNL1       -0.4742
     30 C           3.8788   -0.7658   19.7687 C.3     1  UNL1        0.2226
     31 C           3.9222   -1.6935   18.5908 C.3     1  UNL1        0.1200
     32 N           5.0568   -2.6632   18.4413 N.3     1  UNL1       -0.2696
     33 C           7.5716   -2.3839   19.0310 C.3     1  UNL1        0.0188
     34 C           6.4268   -2.1657   18.0866 C.3     1  UNL1        0.0722
     35 C           4.8214   -4.1303   18.6463 C.3     1  UNL1        0.0722
     36 C           3.5195   -4.6083   19.2180 C.3     1  UNL1        0.0188
@<TRIPOS>BOND
     1    33    34    1
     2    34    32    1
     3    32    35    1
     4    35    36    1
     5    32    31    1
     6    31    30    1
     7    30    29    1
     8    29     1    1
     9     1     2   ar
    10     2     3   ar
    11     3     4   ar
    12     4     5   ar
    13     5     6   ar
    14     6     7    1
    15     7     8    1
    16     8     9    1
    17     9    10    1
    18    10    11    2
    19    11    12    1
    20    12    13    1
    21    13    14    1
    22    14    15    1
    23    15    16   ar
    24    16    17   ar
    25    17    18   ar
    26    18    19   ar
    27    19    20   ar
    28    19    21    1
    29    21    22   ar
    30    22    23   ar
    31    23    24   ar
    32    24    25   ar
    33    25    26   ar
    34    25    27    1
    35     6     1   ar
    36    20    15   ar
    37    26    21   ar
    38    27     4    1
    39    27    28    1
@<TRIPOS>MOLECULE
*****
 36 39 0 0 0
SMALL
GASTEIGER

@<TRIPOS>ATOM
      1 C           7.4364   -4.3627   27.4385 C.ar    1  UNL1        0.1370
      2 C           8.0790   -5.2386   26.4043 C.ar    1  UNL1        0.0379
      3 C           7.6630   -5.1313   24.9671 C.ar    1  UNL1        0.0178
      4 C           6.6353   -4.2536   24.2252 C.ar    1  UNL1        0.0504
      5 C           6.6903   -3.9872   25.7004 C.ar    1  UNL1        0.0158
      6 C           6.3776   -3.3794   27.0355 C.ar    1  UNL1        0.0425
      7 C           5.7349   -2.5034   28.0698 C.3     1  UNL1        0.1721
      8 O           4.8397   -1.4650   28.6783 O.3     1  UNL1       -0.3442
      9 C           3.8001   -0.3893   28.7877 C.3     1  UNL1        0.1686
     10 C           2.7414    0.5939   28.3848 C.2     1  UNL1        0.0036
     11 C           1.7912    1.3660   27.5181 C.2     1  UNL1        0.0036
     12 C           1.0643    1.8340   26.2923 C.3     1  UNL1        0.1686
     13 O           0.6482    1.9412   24.8552 O.3     1  UNL1       -0.3443
     14 C           0.5932    1.6749   23.3801 C.3     1  UNL1        0.1691
     15 C           0.9059    1.0671   22.0448 C.ar    1  UNL1        0.0073
     16 C           0.1790    1.5350   20.8190 C.ar    1  UNL1       -0.0019
     17 C           0.4917    0.9272   19.4839 C.ar    1  UNL1       -0.0002
     18 C           1.5314   -0.1485   19.3745 C.ar    1  UNL1        0.0015
     19 C           2.2583   -0.6164   20.6002 C.ar    1  UNL1        0.0176
     20 C           1.9456   -0.0086   21.9354 C.ar    1  UNL1       -0.0004
     21 C           3.4835   -1.9231   20.2927 C.ar    1  UNL1        0.0857
     22 C           4.0385   -2.7426   19.1107 C.ar    1  UNL1        0.0399
     23 C           5.0781   -3.8183   19.0013 C.ar    1  UNL1        0.1034
     24 N           5.8051   -4.2862   20.2270 N.ar    1  UNL1       -0.2120
     25 C           5.4923   -3.6784   21.5622 C.ar    1  UNL1        0.2207
     26 N           4.5422   -2.9062   20.6957 N.ar    1  UNL1       -0.2135
     27 N           6.2193   -4.1463   22.7881 N.pl3   1  UNL1       -0.2825
     28 H           6.8068   -4.8279   22.3887 H       1  UNL1        0.1551
     29 O           7.8524   -4.4699   28.8756 O.3     1  UNL1       -0.4742
     30 C           7.1587   -5.4387   29.7869 C.3     1  UNL1        0.2226
     31 C           7.0220   -5.1278   31.2479 C.3     1  UNL1        0.1200
     32 N           7.1710   -3.7156   31.7313 N.3     1  UNL1       -0.2696
     33 C           5.0731   -2.7817   32.9463 C.3     1  UNL1        0.0188
     34 C           5.9822   -2.8011   31.7534 C.3     1  UNL1        0.0722
     35 C           8.5088   -3.2180   32.1925 C.3     1  UNL1        0.0722
     36 C           8.6291   -1.8596   32.8173 C.3     1  UNL1        0.0188
@<TRIPOS>BOND
     1    33    34    1
     2    34    32    1
     3    32    35    1
     4    35    36    1
     5    32    31    1
     6    31    30    1
     7    30    29    1
     8    29     1    1
     9     1     2   ar
    10     2     3   ar
    11     3     4   ar
    12     4     5   ar
    13     5     6   ar
    14     6     7    1
    15     7     8    1
    16     8     9    1
    17     9    10    1
    18    10    11    2
    19    11    12    1
    20    12    13    1
    21    13    14    1
    22    14    15    1
    23    15    16   ar
    24    16    17   ar
    25    17    18   ar
    26    18    19   ar
    27    19    20   ar
    28    19    21    1
    29    21    22   ar
    30    22    23   ar
    31    23    24   ar
    32    24    25   ar
    33    25    26   ar
    34    25    27    1
    35     6     1   ar
    36    20    15   ar
    37    26    21   ar
    38    27     4    1
    39    27    28    1
@<TRIPOS>MOLECULE
*****
 36 39 0 0 0
SMALL
GASTEIGER

@<TRIPOS>ATOM
      1 C           6.6052   -4.3112   22.9381 C.ar    1  UNL1        0.1370
      2 C           7.6203   -5.2285   23.5528 C.ar    1  UNL1        0.0379
      3 C           7.8357   -5.2217   25.0372 C.ar    1  UNL1        0.0178
      4 C           7.2048   -4.4225   26.1949 C.ar    1  UNL1        0.0504
      5 C           6.6440   -4.0652   24.8503 C.ar    1  UNL1        0.0158
      6 C           5.8055   -3.3870   23.8078 C.ar    1  UNL1        0.0425
      7 C           4.7903   -2.4696   23.1931 C.3     1  UNL1        0.1721
      8 O           3.7210   -1.4237   23.0803 O.3     1  UNL1       -0.3442
      9 C           2.7265   -0.3755   23.4831 C.3     1  UNL1        0.1686
     10 C           1.9268    0.5486   24.3528 C.2     1  UNL1        0.0036
     11 C           1.4183    1.2373   25.5846 C.2     1  UNL1        0.0036
     12 C           1.2624    1.6073   27.0298 C.3     1  UNL1        0.1686
     13 O           1.4778    1.6141   28.5142 O.3     1  UNL1       -0.3443
     14 C           2.0386    1.2568   29.8587 C.3     1  UNL1        0.1691
     15 C           2.8772    0.5785   30.9013 C.ar    1  UNL1        0.0073
     16 C           2.7212    0.9485   32.3465 C.ar    1  UNL1       -0.0019
     17 C           3.5598    0.2703   33.3890 C.ar    1  UNL1       -0.0002
     18 C           4.5543   -0.7779   32.9863 C.ar    1  UNL1        0.0015
     19 C           4.7102   -1.1479   31.5411 C.ar    1  UNL1        0.0176
     20 C           3.8717   -0.4697   30.4986 C.ar    1  UNL1       -0.0004
     21 C           5.9561   -2.4330   31.2261 C.ar    1  UNL1        0.0857
     22 C           6.9524   -3.3057   32.0151 C.ar    1  UNL1        0.0399
     23 C           7.9469   -4.3539   31.6123 C.ar    1  UNL1        0.1034
     24 N           8.1029   -4.7239   30.1671 N.ar    1  UNL1       -0.2120
     25 C           7.2643   -4.0457   29.1246 C.ar    1  UNL1        0.2207
     26 N           6.7558   -3.3571   30.3563 N.ar    1  UNL1       -0.2135
     27 N           7.4202   -4.4157   27.6793 N.pl3   1  UNL1       -0.2825
     28 H           8.1221   -5.1022   27.7533 H       1  UNL1        0.1551
     29 O           6.3897   -4.3179   21.4536 O.3     1  UNL1       -0.4742
     30 C           6.8194   -3.1415   20.6282 C.3     1  UNL1        0.2226
     31 C           6.0539   -2.7731   19.3920 C.3     1  UNL1        0.1200
     32 N           4.5728   -2.5472   19.4665 N.3     1  UNL1       -0.2696
     33 C           4.1601   -5.0489   18.9002 C.3     1  UNL1        0.0188
     34 C           3.6280   -3.6947   19.2648 C.3     1  UNL1        0.0722
     35 C           4.0366   -1.1738   19.7426 C.3     1  UNL1        0.0722
     36 C           2.5565   -0.9304   19.7325 C.3     1  UNL1        0.0188
@<TRIPOS>BOND
     1    33    34    1
     2    34    32    1
     3    32    35    1
     4    35    36    1
     5    32    31    1
     6    31    30    1
     7    30    29    1
     8    29     1    1
     9     1     2   ar
    10     2     3   ar
    11     3     4   ar
    12     4     5   ar
    13     5     6   ar
    14     6     7    1
    15     7     8    1
    16     8     9    1
    17     9    10    1
    18    10    11    2
    19    11    12    1
    20    12    13    1
    21    13    14    1
    22    14    15    1
    23    15    16   ar
    24    16    17   ar
    25    17    18   ar
    26    18    19   ar
    27    19    20   ar
    28    19    21    1
    29    21    22   ar
    30    22    23   ar
    31    23    24   ar
    32    24    25   ar
    33    25    26   ar
    34    25    27    1
    35     6     1   ar
    36    20    15   ar
    37    26    21   ar
    38    27     4    1
    39    27    28    1
@<TRIPOS>MOLECULE
*****
 36 39 0 0 0
SMALL
GASTEIGER

@<TRIPOS>ATOM
      1 C           1.5407    1.1706   30.3418 C.ar    1  UNL1        0.1370
      2 C           0.9078    1.8109   29.1421 C.ar    1  UNL1        0.0379
      3 C           1.3053    1.3762   27.7626 C.ar    1  UNL1        0.0178
      4 C           2.3034    0.3293   27.2290 C.ar    1  UNL1        0.0504
      5 C           2.2584    0.3991   28.7267 C.ar    1  UNL1        0.0158
      6 C           2.5712    0.0955   30.1620 C.ar    1  UNL1        0.0425
      7 C           3.2042   -0.5448   31.3617 C.3     1  UNL1        0.1721
      8 O           4.0810   -1.4446   32.1811 O.3     1  UNL1       -0.3442
      9 C           5.0959   -2.4955   32.5215 C.3     1  UNL1        0.1686
     10 C           6.1263   -3.5705   32.3417 C.2     1  UNL1        0.0036
     11 C           7.0482   -4.5401   31.6635 C.2     1  UNL1        0.0036
     12 C           7.7502   -5.2874   30.5686 C.3     1  UNL1        0.1686
     13 O           8.1477   -5.7221   29.1892 O.3     1  UNL1       -0.3443
     14 C           8.1928   -5.7919   27.6915 C.3     1  UNL1        0.1691
     15 C           7.8800   -5.4883   26.2562 C.ar    1  UNL1        0.0073
     16 C           8.5820   -6.2356   25.1613 C.ar    1  UNL1       -0.0019
     17 C           8.2691   -5.9320   23.7261 C.ar    1  UNL1       -0.0002
     18 C           7.2543   -4.8812   23.3857 C.ar    1  UNL1        0.0015
     19 C           6.5523   -4.1339   24.4806 C.ar    1  UNL1        0.0176
     20 C           6.8651   -4.4375   25.9158 C.ar    1  UNL1       -0.0004
     21 C           5.3553   -2.8974   23.8966 C.ar    1  UNL1        0.0857
     22 C           4.8070   -2.3472   22.5649 C.ar    1  UNL1        0.0399
     23 C           3.7922   -1.2963   22.2245 C.ar    1  UNL1        0.1034
     24 N           3.0901   -0.5491   23.3194 N.ar    1  UNL1       -0.2120
     25 C           3.4030   -0.8527   24.7546 C.ar    1  UNL1        0.2207
     26 N           4.3248   -1.8223   24.0765 N.ar    1  UNL1       -0.2135
     27 N           2.7010   -0.1054   25.8496 N.pl3   1  UNL1       -0.2825
     28 H           2.1255    0.4852   25.3117 H       1  UNL1        0.1551
     29 O           1.1432    1.6053   31.7213 O.3     1  UNL1       -0.4742
     30 C           2.0619    2.4750   32.5274 C.3     1  UNL1        0.2226
     31 C           1.5099    3.3309   33.6286 C.3     1  UNL1        0.1200
     32 N           2.0602    3.2114   35.0189 N.3     1  UNL1       -0.2696
     33 C           4.4594    2.3013   35.4256 C.3     1  UNL1        0.0188
     34 C           2.9774    2.0768   35.3675 C.3     1  UNL1        0.0722
     35 C           1.6932    4.2264   36.0605 C.3     1  UNL1        0.0722
     36 C           1.7396    3.8597   37.5143 C.3     1  UNL1        0.0188
@<TRIPOS>BOND
     1    33    34    1
     2    34    32    1
     3    32    35    1
     4    35    36    1
     5    32    31    1
     6    31    30    1
     7    30    29    1
     8    29     1    1
     9     1     2   ar
    10     2     3   ar
    11     3     4   ar
    12     4     5   ar
    13     5     6   ar
    14     6     7    1
    15     7     8    1
    16     8     9    1
    17     9    10    1
    18    10    11    2
    19    11    12    1
    20    12    13    1
    21    13    14    1
    22    14    15    1
    23    15    16   ar
    24    16    17   ar
    25    17    18   ar
    26    18    19   ar
    27    19    20   ar
    28    19    21    1
    29    21    22   ar
    30    22    23   ar
    31    23    24   ar
    32    24    25   ar
    33    25    26   ar
    34    25    27    1
    35     6     1   ar
    36    20    15   ar
    37    26    21   ar
    38    27     4    1
    39    27    28    1
@<TRIPOS>MOLECULE
*****
 36 39 0 0 0
SMALL
GASTEIGER

@<TRIPOS>ATOM
      1 C           0.4443    2.3024   27.1544 C.ar    1  UNL1        0.1370
      2 C           0.1536    2.7068   28.5693 C.ar    1  UNL1        0.0379
      3 C           0.8731    2.0385   29.7032 C.ar    1  UNL1        0.0178
      4 C           1.9421    0.9297   29.7719 C.ar    1  UNL1        0.0504
      5 C           1.5229    1.2660   28.3714 C.ar    1  UNL1        0.0158
      6 C           1.4546    1.2297   26.8735 C.ar    1  UNL1        0.0425
      7 C           1.7453    0.8253   25.4585 C.3     1  UNL1        0.1721
      8 O           2.3601    0.1016   24.2974 O.3     1  UNL1       -0.3442
      9 C           3.2247   -0.8543   23.5301 C.3     1  UNL1        0.1686
     10 C           4.2348   -1.9269   23.2492 C.2     1  UNL1        0.0036
     11 C           5.2688   -2.9870   23.4884 C.2     1  UNL1        0.0036
     12 C           6.2018   -3.9066   24.2191 C.3     1  UNL1        0.1686
     13 O           6.9212   -4.5748   25.3530 O.3     1  UNL1       -0.3443
     14 C           7.3404   -4.9111   26.7534 C.3     1  UNL1        0.1691
     15 C           7.4088   -4.8749   28.2515 C.ar    1  UNL1        0.0073
     16 C           8.3417   -5.7945   28.9822 C.ar    1  UNL1       -0.0019
     17 C           8.4101   -5.7582   30.4801 C.ar    1  UNL1       -0.0002
     18 C           7.5454   -4.8023   31.2474 C.ar    1  UNL1        0.0015
     19 C           6.6125   -3.8827   30.5168 C.ar    1  UNL1        0.0176
     20 C           6.5442   -3.9190   29.0188 C.ar    1  UNL1       -0.0004
     21 C           5.6387   -2.7908   31.5948 C.ar    1  UNL1        0.0857
     22 C           5.4604   -2.4973   33.0978 C.ar    1  UNL1        0.0399
     23 C           4.5958   -1.5415   33.8651 C.ar    1  UNL1        0.1034
     24 N           3.6629   -0.6219   33.1345 N.ar    1  UNL1       -0.2120
     25 C           3.5945   -0.6582   31.6365 C.ar    1  UNL1        0.2207
     26 N           4.6285   -1.7182   31.8757 N.ar    1  UNL1       -0.2135
     27 N           2.6615    0.2615   30.9058 N.pl3   1  UNL1       -0.2825
     28 H           2.2581    0.7365   31.6679 H       1  UNL1        0.1551
     29 O          -0.2751    2.9706   26.0204 O.3     1  UNL1       -0.4742
     30 C          -1.6633    3.5021   26.2223 C.3     1  UNL1        0.2226
     31 C          -2.6346    3.5156   25.0794 C.3     1  UNL1        0.1200
     32 N          -4.0456    3.9748   25.2997 N.3     1  UNL1       -0.2696
     33 C          -4.9181    3.0372   23.0393 C.3     1  UNL1        0.0188
     34 C          -4.9994    4.0483   24.1443 C.3     1  UNL1        0.0722
     35 C          -4.5026    4.3604   26.6753 C.3     1  UNL1        0.0722
     36 C          -5.5051    5.4623   26.8512 C.3     1  UNL1        0.0188
@<TRIPOS>BOND
     1    33    34    1
     2    34    32    1
     3    32    35    1
     4    35    36    1
     5    32    31    1
     6    31    30    1
     7    30    29    1
     8    29     1    1
     9     1     2   ar
    10     2     3   ar
    11     3     4   ar
    12     4     5   ar
    13     5     6   ar
    14     6     7    1
    15     7     8    1
    16     8     9    1
    17     9    10    1
    18    10    11    2
    19    11    12    1
    20    12    13    1
    21    13    14    1
    22    14    15    1
    23    15    16   ar
    24    16    17   ar
    25    17    18   ar
    26    18    19   ar
    27    19    20   ar
    28    19    21    1
    29    21    22   ar
    30    22    23   ar
    31    23    24   ar
    32    24    25   ar
    33    25    26   ar
    34    25    27    1
    35     6     1   ar
    36    20    15   ar
    37    26    21   ar
    38    27     4    1
    39    27    28    1
@<TRIPOS>MOLECULE
*****
 36 39 0 0 0
SMALL
GASTEIGER

@<TRIPOS>ATOM
      1 C           2.6434    0.0159   24.1172 C.ar    1  UNL1        0.1370
      2 C           3.0893   -0.5560   22.8042 C.ar    1  UNL1        0.0379
      3 C           4.0869   -1.6757   22.7739 C.ar    1  UNL1        0.0178
      4 C           4.8366   -2.4557   23.8723 C.ar    1  UNL1        0.0504
      5 C           3.9200   -1.3987   24.4134 C.ar    1  UNL1        0.0158
      6 C           3.1951   -0.5321   25.4000 C.ar    1  UNL1        0.0425
      7 C           2.7492    0.0397   26.7131 C.3     1  UNL1        0.1721
      8 O           2.6362    0.2477   28.1943 O.3     1  UNL1       -0.3442
      9 C           2.8696    0.0669   29.6649 C.3     1  UNL1        0.1686
     10 C           3.4213   -0.4810   30.9476 C.2     1  UNL1        0.0036
     11 C           4.2248   -1.3300   31.8877 C.2     1  UNL1        0.0036
     12 C           5.1831   -2.3775   32.3718 C.3     1  UNL1        0.1686
     13 O           6.1807   -3.4972   32.3414 O.3     1  UNL1       -0.3443
     14 C           7.0972   -4.5542   31.8003 C.3     1  UNL1        0.1691
     15 C           7.8222   -5.4209   30.8137 C.ar    1  UNL1        0.0073
     16 C           8.7805   -6.4684   31.2977 C.ar    1  UNL1       -0.0019
     17 C           9.5054   -7.3350   30.3112 C.ar    1  UNL1       -0.0002
     18 C           9.2720   -7.1541   28.8405 C.ar    1  UNL1        0.0015
     19 C           8.3137   -6.1066   28.3564 C.ar    1  UNL1        0.0176
     20 C           7.5888   -5.2400   29.3430 C.ar    1  UNL1       -0.0004
     21 C           8.1477   -6.0199   26.5488 C.ar    1  UNL1        0.0857
     22 C           8.7092   -6.7180   25.2941 C.ar    1  UNL1        0.0399
     23 C           8.4758   -6.5371   23.8234 C.ar    1  UNL1        0.1034
     24 N           7.5174   -5.4896   23.3394 N.ar    1  UNL1       -0.2120
     25 C           6.7925   -4.6230   24.3260 C.ar    1  UNL1        0.2207
     26 N           7.5960   -5.4719   25.2661 N.ar    1  UNL1       -0.2135
     27 N           5.8342   -3.5754   23.8419 N.pl3   1  UNL1       -0.2825
     28 H           5.9084   -3.7120   22.8698 H       1  UNL1        0.1551
     29 O           1.6458    1.1356   24.1477 O.3     1  UNL1       -0.4742
     30 C           2.0201    2.4881   23.6177 C.3     1  UNL1        0.2226
     31 C           1.2885    3.0610   22.4403 C.3     1  UNL1        0.1200
     32 N           1.2912    2.3327   21.1288 N.3     1  UNL1       -0.2696
     33 C           3.8303    2.4041   20.5830 C.3     1  UNL1        0.0188
     34 C           2.4031    2.5588   20.1477 C.3     1  UNL1        0.0722
     35 C           0.1821    1.3784   20.7987 C.3     1  UNL1        0.0722
     36 C           0.4983   -0.0416   20.4330 C.3     1  UNL1        0.0188
@<TRIPOS>BOND
     1    33    34    1
     2    34    32    1
     3    32    35    1
     4    35    36    1
     5    32    31    1
     6    31    30    1
     7    30    29    1
     8    29     1    1
     9     1     2   ar
    10     2     3   ar
    11     3     4   ar
    12     4     5   ar
    13     5     6   ar
    14     6     7    1
    15     7     8    1
    16     8     9    1
    17     9    10    1
    18    10    11    2
    19    11    12    1
    20    12    13    1
    21    13    14    1
    22    14    15    1
    23    15    16   ar
    24    16    17   ar
    25    17    18   ar
    26    18    19   ar
    27    19    20   ar
    28    19    21    1
    29    21    22   ar
    30    22    23   ar
    31    23    24   ar
    32    24    25   ar
    33    25    26   ar
    34    25    27    1
    35     6     1   ar
    36    20    15   ar
    37    26    21   ar
    38    27     4    1
    39    27    28    1
@<TRIPOS>MOLECULE
*****
 36 39 0 0 0
SMALL
GASTEIGER

@<TRIPOS>ATOM
      1 C           8.2608   -6.5351   28.2401 C.ar    1  UNL1        0.1370
      2 C           8.4778   -6.6851   29.7167 C.ar    1  UNL1        0.0379
      3 C           7.7955   -5.7528   30.6735 C.ar    1  UNL1        0.0178
      4 C           6.8325   -4.5634   30.4875 C.ar    1  UNL1        0.0504
      5 C           7.2531   -5.1960   29.1941 C.ar    1  UNL1        0.0158
      6 C           7.3615   -5.4528   27.7203 C.ar    1  UNL1        0.0425
      7 C           7.1444   -5.3029   26.2436 C.3     1  UNL1        0.1721
      8 O           6.6282   -4.7641   24.9424 O.3     1  UNL1       -0.3442
      9 C           5.8751   -3.9017   23.9735 C.3     1  UNL1        0.1686
     10 C           4.9758   -2.8195   23.4537 C.2     1  UNL1        0.0036
     11 C           4.0389   -1.6481   23.4458 C.2     1  UNL1        0.0036
     12 C           3.1774   -0.5288   23.9506 C.3     1  UNL1        0.1686
     13 O           2.4951    0.4034   24.9074 O.3     1  UNL1       -0.3443
     14 C           2.0745    1.0361   26.2008 C.3     1  UNL1        0.1691
     15 C           1.9661    1.2929   27.6747 C.ar    1  UNL1        0.0073
     16 C           1.1046    2.4122   28.1796 C.ar    1  UNL1       -0.0019
     17 C           0.9962    2.6690   29.6534 C.ar    1  UNL1       -0.0002
     18 C           1.7494    1.8065   30.6224 C.ar    1  UNL1        0.0015
     19 C           2.6109    0.6873   30.1175 C.ar    1  UNL1        0.0176
     20 C           2.7193    0.4305   28.6437 C.ar    1  UNL1       -0.0004
     21 C           3.4525   -0.2583   31.4216 C.ar    1  UNL1        0.0857
     22 C           3.5656   -0.2733   32.9590 C.ar    1  UNL1        0.0399
     23 C           4.3188   -1.1357   33.9280 C.ar    1  UNL1        0.1034
     24 N           5.1803   -2.2550   33.4231 N.ar    1  UNL1       -0.2120
     25 C           5.2886   -2.5118   31.9493 C.ar    1  UNL1        0.2207
     26 N           4.3518   -1.3405   31.9413 N.ar    1  UNL1       -0.2135
     27 N           6.1502   -3.6312   31.4443 N.pl3   1  UNL1       -0.2825
     28 H           6.4890   -3.9848   32.2984 H       1  UNL1        0.1551
     29 O           8.9430   -7.4673   27.2832 O.3     1  UNL1       -0.4742
     30 C           9.0427   -8.9294   27.6031 C.3     1  UNL1        0.2226
     31 C           7.8021   -9.7704   27.6624 C.3     1  UNL1        0.1200
     32 N           7.9007  -11.2303   27.9930 N.3     1  UNL1       -0.2696
     33 C           9.2703  -13.4378   27.9598 C.3     1  UNL1        0.0188
     34 C           9.2145  -11.9420   27.8613 C.3     1  UNL1        0.0722
     35 C           6.6855  -11.9782   28.4552 C.3     1  UNL1        0.0722
     36 C           5.3415  -11.6605   27.8697 C.3     1  UNL1        0.0188
@<TRIPOS>BOND
     1    33    34    1
     2    34    32    1
     3    32    35    1
     4    35    36    1
     5    32    31    1
     6    31    30    1
     7    30    29    1
     8    29     1    1
     9     1     2   ar
    10     2     3   ar
    11     3     4   ar
    12     4     5   ar
    13     5     6   ar
    14     6     7    1
    15     7     8    1
    16     8     9    1
    17     9    10    1
    18    10    11    2
    19    11    12    1
    20    12    13    1
    21    13    14    1
    22    14    15    1
    23    15    16   ar
    24    16    17   ar
    25    17    18   ar
    26    18    19   ar
    27    19    20   ar
    28    19    21    1
    29    21    22   ar
    30    22    23   ar
    31    23    24   ar
    32    24    25   ar
    33    25    26   ar
    34    25    27    1
    35     6     1   ar
    36    20    15   ar
    37    26    21   ar
    38    27     4    1
    39    27    28    1
