@<TRIPOS>MOLECULE
*****
 24 25 0 0 0
SMALL
GASTEIGER

@<TRIPOS>ATOM
      1 N           7.0605   -4.1171   25.3531 N.am    1  UNL1       -0.2623
      2 C           7.8132   -4.3194   26.6347 C.3     1  UNL1        0.1164
      3 C           6.1544   -2.9323   25.1945 C.2     1  UNL1        0.3072
      4 O           6.0011   -1.9498   26.3175 O.2     1  UNL1       -0.2523
      5 N           5.4017   -2.7301   23.9129 N.am    1  UNL1       -0.2634
      6 C           5.5550   -3.7126   22.7900 C.3     1  UNL1        0.0993
      7 C           4.8023   -3.5103   21.5084 C.3     1  UNL1        0.0442
      8 C           3.8962   -2.3255   21.3498 C.2     1  UNL1       -0.0326
      9 C           3.1434   -2.1232   20.0682 C.2     1  UNL1        0.0412
     10 C           3.7428   -1.3430   22.4727 C.3     1  UNL1        0.0442
     11 C           4.4956   -1.5453   23.7543 C.3     1  UNL1        0.0993
     12 C           2.2374   -0.9384   19.9096 C.1     1  UNL1       -0.0583
     13 C           1.3312    0.2464   19.7510 C.1     1  UNL1       -0.0405
     14 C           0.4251    1.4312   19.5923 C.ar    1  UNL1        0.1224
     15 C           0.4814    2.2563   18.3408 C.ar    1  UNL1        0.0276
     16 C          -0.4247    3.4411   18.1822 C.ar    1  UNL1        0.0034
     17 C          -1.3871    3.8009   19.2750 C.ar    1  UNL1        0.0148
     18 C          -1.4435    2.9759   20.5265 C.ar    1  UNL1        0.0600
     19 C          -2.4059    3.3357   21.6193 C.3     1  UNL1        0.0521
     20 N          -0.5373    1.7910   20.6852 N.ar    1  UNL1       -0.2414
     21 C           7.2139   -5.0997   24.2301 C.3     1  UNL1        0.0950
     22 C           8.3240   -6.1080   24.2621 C.3     1  UNL1        0.0216
     23 C           7.7412   -7.9164   26.0342 C.3     1  UNL1        0.0001
     24 C           8.0297   -7.5367   24.6121 C.3     1  UNL1        0.0018
@<TRIPOS>BOND
     1    23    24    1
     2    24    22    1
     3    22    21    1
     4    21     1    1
     5     1     2    1
     6     1     3   am
     7     3     4    2
     8     3     5   am
     9     5     6    1
    10     6     7    1
    11     7     8    1
    12     8     9    2
    13     9    12    1
    14    12    13    3
    15    13    14    1
    16    14    15   ar
    17    15    16   ar
    18    16    17   ar
    19    17    18   ar
    20    18    19    1
    21    18    20   ar
    22     8    10    1
    23    10    11    1
    24    11     5    1
    25    20    14   ar
@<TRIPOS>MOLECULE
*****
 24 25 0 0 0
SMALL
GASTEIGER

@<TRIPOS>ATOM
      1 N           3.3411   -0.5619   18.6078 N.am    1  UNL1       -0.2623
      2 C           3.6803   -0.8641   17.1782 C.3     1  UNL1        0.1164
      3 C           2.0902    0.1974   18.9374 C.2     1  UNL1        0.3072
      4 O           1.1785    0.6544   17.8374 O.2     1  UNL1       -0.2523
      5 N           1.7509    0.4996   20.3669 N.am    1  UNL1       -0.2634
      6 C           2.6626    0.0425   21.4668 C.3     1  UNL1        0.0993
      7 C           2.3234    0.3447   22.8964 C.3     1  UNL1        0.0442
      8 C           1.0725    1.1040   23.2260 C.2     1  UNL1       -0.0326
      9 C           0.7332    1.4062   24.6555 C.2     1  UNL1        0.0412
     10 C           0.1608    1.5611   22.1260 C.3     1  UNL1        0.0442
     11 C           0.5001    1.2589   20.6965 C.3     1  UNL1        0.0993
     12 C          -0.5177    2.1655   24.9851 C.1     1  UNL1       -0.0583
     13 C          -1.7687    2.9249   25.3148 C.1     1  UNL1       -0.0405
     14 C          -3.0196    3.6841   25.6443 C.ar    1  UNL1        0.1224
     15 C          -3.0937    4.4975   26.9026 C.ar    1  UNL1        0.0276
     16 C          -4.3446    5.2568   27.2321 C.ar    1  UNL1        0.0034
     17 C          -5.5214    5.2028   26.3036 C.ar    1  UNL1        0.0148
     18 C          -5.4473    4.3895   25.0454 C.ar    1  UNL1        0.0600
     19 C          -6.6241    4.3354   24.1169 C.3     1  UNL1        0.0521
     20 N          -4.1964    3.6301   24.7158 N.ar    1  UNL1       -0.2414
     21 C           4.2528   -1.0190   19.7077 C.3     1  UNL1        0.0950
     22 C           4.8109   -2.4112   19.6894 C.3     1  UNL1        0.0216
     23 C           4.2778   -4.8536   18.9819 C.3     1  UNL1        0.0001
     24 C           3.8842   -3.5908   19.6892 C.3     1  UNL1        0.0018
@<TRIPOS>BOND
     1    23    24    1
     2    24    22    1
     3    22    21    1
     4    21     1    1
     5     1     2    1
     6     1     3   am
     7     3     4    2
     8     3     5   am
     9     5     6    1
    10     6     7    1
    11     7     8    1
    12     8     9    2
    13     9    12    1
    14    12    13    3
    15    13    14    1
    16    14    15   ar
    17    15    16   ar
    18    16    17   ar
    19    17    18   ar
    20    18    19    1
    21    18    20   ar
    22     8    10    1
    23    10    11    1
    24    11     5    1
    25    20    14   ar
@<TRIPOS>MOLECULE
*****
 24 25 0 0 0
SMALL
GASTEIGER

@<TRIPOS>ATOM
      1 N           4.1367   -1.3554   19.7605 N.am    1  UNL1       -0.2623
      2 C           3.1853   -0.6117   18.8707 C.3     1  UNL1        0.1164
      3 C           3.9064   -1.3899   21.2422 C.2     1  UNL1        0.3072
      4 O           2.7247   -0.6807   21.8342 O.2     1  UNL1       -0.2523
      5 N           4.8578   -2.1336   22.1320 N.am    1  UNL1       -0.2634
      6 C           6.0395   -2.8428   21.5401 C.3     1  UNL1        0.0993
      7 C           6.9909   -3.5865   22.4299 C.3     1  UNL1        0.0442
      8 C           6.7606   -3.6210   23.9116 C.2     1  UNL1       -0.0326
      9 C           7.7120   -4.3647   24.8014 C.2     1  UNL1        0.0412
     10 C           5.5789   -2.9118   24.5036 C.3     1  UNL1        0.0442
     11 C           4.6275   -2.1681   23.6138 C.3     1  UNL1        0.0993
     12 C           7.4817   -4.3992   26.2832 C.1     1  UNL1       -0.0583
     13 C           7.2514   -4.4336   27.7651 C.1     1  UNL1       -0.0405
     14 C           7.0211   -4.4681   29.2468 C.ar    1  UNL1        0.1224
     15 C           7.2871   -5.7268   30.0182 C.ar    1  UNL1        0.0276
     16 C           7.0568   -5.7613   31.4999 C.ar    1  UNL1        0.0034
     17 C           6.5604   -4.5371   32.2105 C.ar    1  UNL1        0.0148
     18 C           6.2944   -3.2784   31.4393 C.ar    1  UNL1        0.0600
     19 C           5.7980   -2.0542   32.1498 C.3     1  UNL1        0.0521
     20 N           6.5247   -3.2439   29.9574 N.ar    1  UNL1       -0.2414
     21 C           5.3185   -2.0646   19.1684 C.3     1  UNL1        0.0950
     22 C           5.1093   -3.2136   18.2271 C.3     1  UNL1        0.0216
     23 C           3.2496   -4.7252   19.2303 C.3     1  UNL1        0.0001
     24 C           4.6608   -4.5439   18.7554 C.3     1  UNL1        0.0018
@<TRIPOS>BOND
     1    23    24    1
     2    24    22    1
     3    22    21    1
     4    21     1    1
     5     1     2    1
     6     1     3   am
     7     3     4    2
     8     3     5   am
     9     5     6    1
    10     6     7    1
    11     7     8    1
    12     8     9    2
    13     9    12    1
    14    12    13    3
    15    13    14    1
    16    14    15   ar
    17    15    16   ar
    18    16    17   ar
    19    17    18   ar
    20    18    19    1
    21    18    20   ar
    22     8    10    1
    23    10    11    1
    24    11     5    1
    25    20    14   ar
@<TRIPOS>MOLECULE
*****
 24 25 0 0 0
SMALL
GASTEIGER

@<TRIPOS>ATOM
      1 N           4.0446   -0.9793   18.1898 N.am    1  UNL1       -0.2623
      2 C           3.9045   -0.8441   16.7025 C.3     1  UNL1        0.1164
      3 C           4.8544   -2.1019   18.7677 C.2     1  UNL1        0.3072
      4 O           5.5240   -3.0891   17.8584 O.2     1  UNL1       -0.2523
      5 N           4.9945   -2.2372   20.2550 N.am    1  UNL1       -0.2634
      6 C           4.3249   -1.2499   21.1643 C.3     1  UNL1        0.0993
      7 C           4.4650   -1.3852   22.6516 C.3     1  UNL1        0.0442
      8 C           5.2748   -2.5077   23.2296 C.2     1  UNL1       -0.0326
      9 C           5.4150   -2.6430   24.7169 C.2     1  UNL1        0.0412
     10 C           5.9445   -3.4950   22.3203 C.3     1  UNL1        0.0442
     11 C           5.8043   -3.3597   20.8330 C.3     1  UNL1        0.0993
     12 C           6.2247   -3.7655   25.2949 C.1     1  UNL1       -0.0583
     13 C           7.0346   -4.8881   25.8729 C.1     1  UNL1       -0.0405
     14 C           7.8444   -6.0107   26.4509 C.ar    1  UNL1        0.1224
     15 C           8.2150   -7.1859   25.5956 C.ar    1  UNL1        0.0276
     16 C           9.0248   -8.3085   26.1736 C.ar    1  UNL1        0.0034
     17 C           9.4640   -8.2558   27.6069 C.ar    1  UNL1        0.0148
     18 C           9.0934   -7.0806   28.4622 C.ar    1  UNL1        0.0600
     19 C           9.5326   -7.0280   29.8955 C.3     1  UNL1        0.0521
     20 N           8.2836   -5.9580   27.8842 N.ar    1  UNL1       -0.2414
     21 C           3.3749    0.0080   19.0991 C.3     1  UNL1        0.0950
     22 C           2.2005    0.8021   18.6091 C.3     1  UNL1        0.0216
     23 C           0.7534    0.0345   20.6257 C.3     1  UNL1        0.0001
     24 C           0.8564    0.6276   19.2519 C.3     1  UNL1        0.0018
@<TRIPOS>BOND
     1    23    24    1
     2    24    22    1
     3    22    21    1
     4    21     1    1
     5     1     2    1
     6     1     3   am
     7     3     4    2
     8     3     5   am
     9     5     6    1
    10     6     7    1
    11     7     8    1
    12     8     9    2
    13     9    12    1
    14    12    13    3
    15    13    14    1
    16    14    15   ar
    17    15    16   ar
    18    16    17   ar
    19    17    18   ar
    20    18    19    1
    21    18    20   ar
    22     8    10    1
    23    10    11    1
    24    11     5    1
    25    20    14   ar
@<TRIPOS>MOLECULE
*****
 24 25 0 0 0
SMALL
GASTEIGER

@<TRIPOS>ATOM
      1 N           4.1597   -1.5377   18.2344 N.am    1  UNL1       -0.2623
      2 C           5.1248   -2.6860   18.2350 C.3     1  UNL1        0.1164
      3 C           3.1786   -1.3819   19.3583 C.2     1  UNL1        0.3072
      4 O           3.1625   -2.3746   20.4827 O.2     1  UNL1       -0.2523
      5 N           2.2135   -0.2336   19.3577 N.am    1  UNL1       -0.2634
      6 C           2.2296    0.7590   18.2332 C.3     1  UNL1        0.0993
      7 C           1.2645    1.9073   18.2326 C.3     1  UNL1        0.0442
      8 C           0.2834    2.0630   19.3564 C.2     1  UNL1       -0.0326
      9 C          -0.6817    3.2113   19.3558 C.2     1  UNL1        0.0412
     10 C           0.2673    1.0704   20.4809 C.3     1  UNL1        0.0442
     11 C           1.2324   -0.0779   20.4815 C.3     1  UNL1        0.0993
     12 C          -1.6629    3.3670   20.4797 C.1     1  UNL1       -0.0583
     13 C          -2.6441    3.5228   21.6035 C.1     1  UNL1       -0.0405
     14 C          -3.6253    3.6785   22.7273 C.ar    1  UNL1        0.1224
     15 C          -3.1579    3.5835   24.1496 C.ar    1  UNL1        0.0276
     16 C          -4.1391    3.7392   25.2734 C.ar    1  UNL1        0.0034
     17 C          -5.5876    3.9899   24.9751 C.ar    1  UNL1        0.0148
     18 C          -6.0549    4.0849   23.5530 C.ar    1  UNL1        0.0600
     19 C          -7.5034    4.3356   23.2547 C.3     1  UNL1        0.0521
     20 N          -5.0738    3.9292   22.4290 N.ar    1  UNL1       -0.2414
     21 C           4.1759   -0.5450   17.1099 C.3     1  UNL1        0.0950
     22 C           5.4478    0.1671   16.7563 C.3     1  UNL1        0.0216
     23 C           5.8915    1.6002   18.8775 C.3     1  UNL1        0.0001
     24 C           5.7667    1.4904   17.3868 C.3     1  UNL1        0.0018
@<TRIPOS>BOND
     1    23    24    1
     2    24    22    1
     3    22    21    1
     4    21     1    1
     5     1     2    1
     6     1     3   am
     7     3     4    2
     8     3     5   am
     9     5     6    1
    10     6     7    1
    11     7     8    1
    12     8     9    2
    13     9    12    1
    14    12    13    3
    15    13    14    1
    16    14    15   ar
    17    15    16   ar
    18    16    17   ar
    19    17    18   ar
    20    18    19    1
    21    18    20   ar
    22     8    10    1
    23    10    11    1
    24    11     5    1
    25    20    14   ar
@<TRIPOS>MOLECULE
*****
 24 25 0 0 0
SMALL
GASTEIGER

@<TRIPOS>ATOM
      1 N         -10.9085   -6.5688   18.5397 N.am    1  UNL1       -0.2623
      2 C          -9.5502   -7.1939   18.4204 C.3     1  UNL1        0.1164
      3 C         -11.0453   -5.1619   19.0415 C.2     1  UNL1        0.3072
      4 O          -9.8237   -4.3800   19.4239 O.2     1  UNL1       -0.2523
      5 N         -12.4036   -4.5369   19.1608 N.am    1  UNL1       -0.2634
      6 C         -13.6252   -5.3188   18.7783 C.3     1  UNL1        0.0993
      7 C         -14.9836   -4.6938   18.8977 C.3     1  UNL1        0.0442
      8 C         -15.1203   -3.2869   19.3994 C.2     1  UNL1       -0.0326
      9 C         -16.4787   -2.6618   19.5187 C.2     1  UNL1        0.0412
     10 C         -13.8988   -2.5050   19.7819 C.3     1  UNL1        0.0442
     11 C         -12.5404   -3.1300   19.6626 C.3     1  UNL1        0.0993
     12 C         -16.6155   -1.2549   20.0205 C.1     1  UNL1       -0.0583
     13 C         -16.7522    0.1521   20.5223 C.1     1  UNL1       -0.0405
     14 C         -16.8890    1.5590   21.0241 C.ar    1  UNL1        0.1224
     15 C         -16.3338    2.6986   20.2221 C.ar    1  UNL1        0.0276
     16 C         -16.4706    4.1055   20.7239 C.ar    1  UNL1        0.0034
     17 C         -17.1625    4.3729   22.0276 C.ar    1  UNL1        0.0148
     18 C         -17.7177    3.2334   22.8296 C.ar    1  UNL1        0.0600
     19 C         -18.4097    3.5008   24.1333 C.3     1  UNL1        0.0521
     20 N         -17.5810    1.8264   22.3278 N.ar    1  UNL1       -0.2414
     21 C         -12.1301   -7.3508   18.1572 C.3     1  UNL1        0.0950
     22 C         -12.2814   -7.8686   16.7576 C.3     1  UNL1        0.0216
     23 C         -14.8692   -7.9627   16.5464 C.3     1  UNL1        0.0001
     24 C         -13.5329   -7.5804   15.9824 C.3     1  UNL1        0.0018
@<TRIPOS>BOND
     1    23    24    1
     2    24    22    1
     3    22    21    1
     4    21     1    1
     5     1     2    1
     6     1     3   am
     7     3     4    2
     8     3     5   am
     9     5     6    1
    10     6     7    1
    11     7     8    1
    12     8     9    2
    13     9    12    1
    14    12    13    3
    15    13    14    1
    16    14    15   ar
    17    15    16   ar
    18    16    17   ar
    19    17    18   ar
    20    18    19    1
    21    18    20   ar
    22     8    10    1
    23    10    11    1
    24    11     5    1
    25    20    14   ar
@<TRIPOS>MOLECULE
*****
 24 25 0 0 0
SMALL
GASTEIGER

@<TRIPOS>ATOM
      1 N         -11.1832   -6.3375   18.8949 N.am    1  UNL1       -0.2623
      2 C          -9.9747   -7.2195   18.7865 C.3     1  UNL1        0.1164
      3 C         -11.0247   -4.8460   18.9033 C.2     1  UNL1        0.3072
      4 O          -9.6579   -4.2364   18.8032 O.2     1  UNL1       -0.2523
      5 N         -12.2332   -3.9640   19.0117 N.am    1  UNL1       -0.2634
      6 C         -13.6001   -4.5736   19.1117 C.3     1  UNL1        0.0993
      7 C         -14.8085   -3.6916   19.2201 C.3     1  UNL1        0.0442
      8 C         -14.6501   -2.2000   19.2285 C.2     1  UNL1       -0.0326
      9 C         -15.8585   -1.3180   19.3369 C.2     1  UNL1        0.0412
     10 C         -13.2832   -1.5905   19.1285 C.3     1  UNL1        0.0442
     11 C         -12.0748   -2.4724   19.0200 C.3     1  UNL1        0.0993
     12 C         -15.7001    0.1735   19.3453 C.1     1  UNL1       -0.0583
     13 C         -15.5417    1.6652   19.3536 C.1     1  UNL1       -0.0405
     14 C         -15.3833    3.1567   19.3620 C.ar    1  UNL1        0.1224
     15 C         -15.5414    3.9349   18.0894 C.ar    1  UNL1        0.0276
     16 C         -15.3830    5.4265   18.0977 C.ar    1  UNL1        0.0034
     17 C         -15.0665    6.1399   19.3787 C.ar    1  UNL1        0.0148
     18 C         -14.9084    5.3618   20.6513 C.ar    1  UNL1        0.0600
     19 C         -14.5919    6.0752   21.9322 C.3     1  UNL1        0.0521
     20 N         -15.0668    3.8702   20.6429 N.ar    1  UNL1       -0.2414
     21 C         -12.5501   -6.9472   18.9950 C.3     1  UNL1        0.0950
     22 C         -13.0460   -7.8585   17.9117 C.3     1  UNL1        0.0216
     23 C         -15.4011   -7.9350   19.0059 C.3     1  UNL1        0.0001
     24 C         -14.4126   -8.4688   18.0121 C.3     1  UNL1        0.0018
@<TRIPOS>BOND
     1    23    24    1
     2    24    22    1
     3    22    21    1
     4    21     1    1
     5     1     2    1
     6     1     3   am
     7     3     4    2
     8     3     5   am
     9     5     6    1
    10     6     7    1
    11     7     8    1
    12     8     9    2
    13     9    12    1
    14    12    13    3
    15    13    14    1
    16    14    15   ar
    17    15    16   ar
    18    16    17   ar
    19    17    18   ar
    20    18    19    1
    21    18    20   ar
    22     8    10    1
    23    10    11    1
    24    11     5    1
    25    20    14   ar
@<TRIPOS>MOLECULE
*****
 24 25 0 0 0
SMALL
GASTEIGER

@<TRIPOS>ATOM
      1 N         -18.4125    2.3193   20.5224 N.am    1  UNL1       -0.2623
      2 C         -19.7525    2.6452   21.1125 C.3     1  UNL1        0.1164
      3 C         -17.9289    0.8996   20.4981 C.2     1  UNL1        0.3072
      4 O         -18.7854   -0.1941   21.0638 O.2     1  UNL1       -0.2523
      5 N         -16.5889    0.5737   19.9081 N.am    1  UNL1       -0.2634
      6 C         -15.7324    1.6675   19.3424 C.3     1  UNL1        0.0993
      7 C         -14.3924    1.3416   18.7523 C.3     1  UNL1        0.0442
      8 C         -13.9089   -0.0781   18.7280 C.2     1  UNL1       -0.0326
      9 C         -12.5688   -0.4040   18.1380 C.2     1  UNL1        0.0412
     10 C         -14.7653   -1.1719   19.2937 C.3     1  UNL1        0.0442
     11 C         -16.1053   -0.8459   19.8838 C.3     1  UNL1        0.0993
     12 C         -12.0853   -1.8237   18.1137 C.1     1  UNL1       -0.0583
     13 C         -11.6017   -3.2434   18.0894 C.1     1  UNL1       -0.0405
     14 C         -11.1181   -4.6631   18.0650 C.ar    1  UNL1        0.1224
     15 C         -10.1050   -5.1277   19.0690 C.ar    1  UNL1        0.0276
     16 C          -9.6214   -6.5474   19.0447 C.ar    1  UNL1        0.0034
     17 C         -10.1510   -7.5025   18.0164 C.ar    1  UNL1        0.0148
     18 C         -11.1640   -7.0380   17.0125 C.ar    1  UNL1        0.0600
     19 C         -11.6935   -7.9932   15.9843 C.3     1  UNL1        0.0521
     20 N         -11.6476   -5.6183   17.0368 N.ar    1  UNL1       -0.2414
     21 C         -17.5560    3.4132   19.9567 C.3     1  UNL1        0.0950
     22 C         -17.5430    4.7663   20.6039 C.3     1  UNL1        0.0216
     23 C         -16.3224    3.7675   22.6686 C.3     1  UNL1        0.0001
     24 C         -16.9098    4.9469   21.9518 C.3     1  UNL1        0.0018
@<TRIPOS>BOND
     1    23    24    1
     2    24    22    1
     3    22    21    1
     4    21     1    1
     5     1     2    1
     6     1     3   am
     7     3     4    2
     8     3     5   am
     9     5     6    1
    10     6     7    1
    11     7     8    1
    12     8     9    2
    13     9    12    1
    14    12    13    3
    15    13    14    1
    16    14    15   ar
    17    15    16   ar
    18    16    17   ar
    19    17    18   ar
    20    18    19    1
    21    18    20   ar
    22     8    10    1
    23    10    11    1
    24    11     5    1
    25    20    14   ar
@<TRIPOS>MOLECULE
*****
 24 25 0 0 0
SMALL
GASTEIGER

@<TRIPOS>ATOM
      1 N          -1.1112    3.2997   22.0267 N.am    1  UNL1       -0.2623
      2 C          -1.7832    4.4343   22.7416 C.3     1  UNL1        0.1164
      3 C           0.0938    2.6414   22.6305 C.2     1  UNL1        0.3072
      4 O           0.6268    3.1177   23.9491 O.2     1  UNL1       -0.2523
      5 N           0.7658    1.5068   21.9156 N.am    1  UNL1       -0.2634
      6 C           0.2328    1.0305   20.5969 C.3     1  UNL1        0.0993
      7 C           0.9048   -0.1042   19.8820 C.3     1  UNL1        0.0442
      8 C           2.1098   -0.7624   20.4858 C.2     1  UNL1       -0.0326
      9 C           2.7818   -1.8970   19.7708 C.2     1  UNL1        0.0412
     10 C           2.6428   -0.2861   21.8044 C.3     1  UNL1        0.0442
     11 C           1.9708    0.8485   22.5193 C.3     1  UNL1        0.0993
     12 C           3.9868   -2.5553   20.3746 C.1     1  UNL1       -0.0583
     13 C           5.1919   -3.2137   20.9784 C.1     1  UNL1       -0.0405
     14 C           6.3969   -3.8719   21.5822 C.ar    1  UNL1        0.1224
     15 C           7.6435   -4.0472   20.7665 C.ar    1  UNL1        0.0276
     16 C           8.8485   -4.7055   21.3703 C.ar    1  UNL1        0.0034
     17 C           8.8070   -5.1885   22.7898 C.ar    1  UNL1        0.0148
     18 C           7.5604   -5.0133   23.6055 C.ar    1  UNL1        0.0600
     19 C           7.5189   -5.4963   25.0250 C.3     1  UNL1        0.0521
     20 N           6.3554   -4.3550   23.0017 N.ar    1  UNL1       -0.2414
     21 C          -1.6442    2.8233   20.7079 C.3     1  UNL1        0.0950
     22 C          -2.3789    3.7729   19.8088 C.3     1  UNL1        0.0216
     23 C          -4.7782    3.3288   20.7011 C.3     1  UNL1        0.0001
     24 C          -3.8450    3.5827   19.5546 C.3     1  UNL1        0.0018
@<TRIPOS>BOND
     1    23    24    1
     2    24    22    1
     3    22    21    1
     4    21     1    1
     5     1     2    1
     6     1     3   am
     7     3     4    2
     8     3     5   am
     9     5     6    1
    10     6     7    1
    11     7     8    1
    12     8     9    2
    13     9    12    1
    14    12    13    3
    15    13    14    1
    16    14    15   ar
    17    15    16   ar
    18    16    17   ar
    19    17    18   ar
    20    18    19    1
    21    18    20   ar
    22     8    10    1
    23    10    11    1
    24    11     5    1
    25    20    14   ar
