@<TRIPOS>MOLECULE
*****
 30 33 0 0 0
SMALL
GASTEIGER

@<TRIPOS>ATOM
      1 C          -8.3930  -19.1483   20.5787 C.ar    1  UNL1        0.2221
      2 N          -9.6855  -19.1802   19.8182 N.ar    1  UNL1       -0.2119
      3 C         -10.8447  -18.3445   20.2742 C.ar    1  UNL1        0.1065
      4 C         -10.7114  -17.4771   21.4906 C.ar    1  UNL1        0.0756
      5 C         -11.6742  -16.5517   22.1739 C.ar    1  UNL1        0.1247
      6 N         -10.9767  -15.9480   23.3567 N.ar    1  UNL1       -0.1664
      7 N          -9.5828  -16.5002   23.4043 N.ar    1  UNL1       -0.2359
      8 C          -9.4189  -17.4452   22.2511 C.ar    1  UNL1        0.1652
      9 N          -8.2597  -18.2809   21.7951 N.ar    1  UNL1       -0.1947
     10 C          -8.5366  -16.1661   24.4260 C.3     1  UNL1        0.1068
     11 C          -8.9289  -16.3895   25.8564 C.3     1  UNL1        0.0244
     12 C          -8.1179  -16.1547   27.0962 C.3     1  UNL1        0.0020
     13 C          -6.7142  -15.6386   27.2118 C.3     1  UNL1        0.0001
     14 C          -5.7749  -15.2298   26.1161 C.3     1  UNL1        0.0001
     15 C          -6.0072  -15.2361   24.6343 C.3     1  UNL1        0.0020
     16 C          -7.2363  -15.6528   23.8821 C.3     1  UNL1        0.0244
     17 N          -7.2338  -19.9840   20.1227 N.pl3   1  UNL1       -0.2813
     18 H          -7.3915  -20.7914   19.5819 H       1  UNL1        0.1551
     19 C          -3.0349  -18.8004   21.2267 C.ar    1  UNL1        0.1468
     20 C          -3.9230  -19.4512   22.2453 C.ar    1  UNL1        0.0369
     21 C          -5.3227  -19.8458   21.8773 C.ar    1  UNL1        0.0192
     22 C          -5.8342  -19.5895   20.4907 C.ar    1  UNL1        0.0700
     23 C          -4.9460  -18.9386   19.4720 C.ar    1  UNL1        0.1149
     24 N          -3.5464  -18.5441   19.8400 N.ar    1  UNL1       -0.2266
     25 N          -1.6353  -18.4059   21.5946 N.pl3   1  UNL1       -0.2027
     26 H          -1.2701  -18.6516   22.4752 H       1  UNL1        0.1749
     27 C           0.0508  -16.8681   19.6473 C.3     1  UNL1        0.1996
     28 S          -0.7922  -17.6370   20.6210 S.O2    1  UNL1        0.0569
     29 O          -1.3543  -16.3508   21.1500 O.2     1  UNL1       -0.1544
     30 O          -0.2302  -18.9232   20.0920 O.2     1  UNL1       -0.1544
@<TRIPOS>BOND
     1    27    28    1
     2    28    29    2
     3    28    30    2
     4    28    25    1
     5    25    19    1
     6    19    20   ar
     7    20    21   ar
     8    21    22   ar
     9    22    17    1
    10    17     1    1
    11     1     2   ar
    12     2     3   ar
    13     3     4   ar
    14     4     5   ar
    15     5     6   ar
    16     6     7   ar
    17     7    10    1
    18    10    11    1
    19    11    12    1
    20    12    13    1
    21    13    14    1
    22    14    15    1
    23    15    16    1
    24     7     8   ar
    25     8     9   ar
    26    22    23   ar
    27    23    24   ar
    28    24    19   ar
    29     9     1   ar
    30     8     4   ar
    31    16    10    1
    32    25    26    1
    33    17    18    1
@<TRIPOS>MOLECULE
*****
 30 33 0 0 0
SMALL
GASTEIGER

@<TRIPOS>ATOM
      1 C          -5.5471  -19.9252   20.5506 C.ar    1  UNL1        0.2221
      2 N          -4.1861  -20.2916   20.0374 N.ar    1  UNL1       -0.2119
      3 C          -2.9649  -19.6484   20.6246 C.ar    1  UNL1        0.1065
      4 C          -3.1047  -18.6386   21.7250 C.ar    1  UNL1        0.0756
      5 C          -2.0903  -17.8442   22.4931 C.ar    1  UNL1        0.1247
      6 N          -2.8244  -16.9867   23.4810 N.ar    1  UNL1       -0.1664
      7 N          -4.2925  -17.2513   23.3234 N.ar    1  UNL1       -0.2359
      8 C          -4.4657  -18.2722   22.2382 C.ar    1  UNL1        0.1652
      9 N          -5.6869  -18.9155   21.6510 N.ar    1  UNL1       -0.1947
     10 C          -5.3940  -16.6079   24.1126 C.3     1  UNL1        0.1068
     11 C          -5.0176  -16.1261   25.4823 C.3     1  UNL1        0.0244
     12 C          -5.8804  -15.4488   26.5054 C.3     1  UNL1        0.0020
     13 C          -7.3328  -15.0860   26.4114 C.3     1  UNL1        0.0001
     14 C          -8.2811  -15.3107   25.2711 C.3     1  UNL1        0.0001
     15 C          -8.0111  -15.9539   23.9432 C.3     1  UNL1        0.0020
     16 C          -6.7263  -16.5312   23.4276 C.3     1  UNL1        0.0244
     17 N          -6.7683  -20.5685   19.9634 N.pl3   1  UNL1       -0.2813
     18 H          -6.6854  -21.4031   19.4478 H       1  UNL1        0.1551
     19 C         -10.8109  -18.6835   20.5582 C.ar    1  UNL1        0.1468
     20 C         -10.4216  -19.2133   19.2100 C.ar    1  UNL1        0.0369
     21 C          -9.0740  -19.8417   19.0117 C.ar    1  UNL1        0.0192
     22 C          -8.1158  -19.9402   20.1616 C.ar    1  UNL1        0.0700
     23 C          -8.5053  -19.4103   21.5099 C.ar    1  UNL1        0.1149
     24 N          -9.8528  -18.7820   21.7081 N.ar    1  UNL1       -0.2266
     25 N         -12.1585  -18.0551   20.7565 N.pl3   1  UNL1       -0.2027
     26 H         -12.9398  -18.4017   20.2680 H       1  UNL1        0.1749
     27 C         -12.4725  -15.7425   22.6414 C.3     1  UNL1        0.1996
     28 S         -12.3155  -16.8988   21.6989 S.O2    1  UNL1        0.0569
     29 O         -13.0371  -17.7871   22.6686 O.2     1  UNL1       -0.1544
     30 O         -11.5938  -16.0105   20.7293 O.2     1  UNL1       -0.1544
@<TRIPOS>BOND
     1    27    28    1
     2    28    29    2
     3    28    30    2
     4    28    25    1
     5    25    19    1
     6    19    20   ar
     7    20    21   ar
     8    21    22   ar
     9    22    17    1
    10    17     1    1
    11     1     2   ar
    12     2     3   ar
    13     3     4   ar
    14     4     5   ar
    15     5     6   ar
    16     6     7   ar
    17     7    10    1
    18    10    11    1
    19    11    12    1
    20    12    13    1
    21    13    14    1
    22    14    15    1
    23    15    16    1
    24     7     8   ar
    25     8     9   ar
    26    22    23   ar
    27    23    24   ar
    28    24    19   ar
    29     9     1   ar
    30     8     4   ar
    31    16    10    1
    32    25    26    1
    33    17    18    1
@<TRIPOS>MOLECULE
*****
 30 33 0 0 0
SMALL
GASTEIGER

@<TRIPOS>ATOM
      1 C         -14.7638   -2.0067   19.3040 C.ar    1  UNL1        0.2221
      2 N         -14.7044   -0.5479   18.9598 N.ar    1  UNL1       -0.2119
      3 C         -13.5094    0.0050   18.2413 C.ar    1  UNL1        0.1065
      4 C         -12.3739   -0.9008   17.8669 C.ar    1  UNL1        0.0756
      5 C         -11.0759   -0.6437   17.1604 C.ar    1  UNL1        0.1247
      6 N         -10.3331   -1.9436   17.0680 N.ar    1  UNL1       -0.1664
      7 N         -11.1721   -3.0040   17.7173 N.ar    1  UNL1       -0.2359
      8 C         -12.4333   -2.3595   18.2111 C.ar    1  UNL1        0.1652
      9 N         -13.6282   -2.9125   18.9296 N.ar    1  UNL1       -0.1947
     10 C         -10.8128   -4.4543   17.8497 C.3     1  UNL1        0.1068
     11 C         -11.4439   -5.3752   16.8479 C.3     1  UNL1        0.0244
     12 C         -11.2880   -6.8612   16.7153 C.3     1  UNL1        0.0020
     13 C         -10.4625   -7.7933   17.5519 C.3     1  UNL1        0.0001
     14 C          -9.5891   -7.4696   18.7275 C.3     1  UNL1        0.0001
     15 C          -9.3253   -6.1339   19.3571 C.3     1  UNL1        0.0020
     16 C          -9.8699   -4.7920   18.9664 C.3     1  UNL1        0.0244
     17 N         -15.9587   -2.5597   20.0226 N.pl3   1  UNL1       -0.2813
     18 H         -16.4855   -1.9807   20.6197 H       1  UNL1        0.1551
     19 C         -17.1356   -6.8650   19.4490 C.ar    1  UNL1        0.1468
     20 C         -18.1728   -5.7854   19.3572 C.ar    1  UNL1        0.0369
     21 C         -17.7806   -4.3502   19.5484 C.ar    1  UNL1        0.0192
     22 C         -16.3510   -3.9948   19.8314 C.ar    1  UNL1        0.0700
     23 C         -15.3138   -5.0745   19.9233 C.ar    1  UNL1        0.1149
     24 N         -15.7061   -6.5096   19.7321 N.ar    1  UNL1       -0.2266
     25 N         -17.5279   -8.3001   19.2579 N.pl3   1  UNL1       -0.2027
     26 H         -18.4216   -8.6071   19.5341 H       1  UNL1        0.1749
     27 C         -15.5892  -10.2349   18.0338 C.3     1  UNL1        0.1996
     28 S         -16.5585   -9.2675   18.6458 S.O2    1  UNL1        0.0569
     29 O         -16.7768   -8.6364   17.3027 O.2     1  UNL1       -0.1544
     30 O         -16.3403   -9.8986   19.9890 O.2     1  UNL1       -0.1544
@<TRIPOS>BOND
     1    27    28    1
     2    28    29    2
     3    28    30    2
     4    28    25    1
     5    25    19    1
     6    19    20   ar
     7    20    21   ar
     8    21    22   ar
     9    22    17    1
    10    17     1    1
    11     1     2   ar
    12     2     3   ar
    13     3     4   ar
    14     4     5   ar
    15     5     6   ar
    16     6     7   ar
    17     7    10    1
    18    10    11    1
    19    11    12    1
    20    12    13    1
    21    13    14    1
    22    14    15    1
    23    15    16    1
    24     7     8   ar
    25     8     9   ar
    26    22    23   ar
    27    23    24   ar
    28    24    19   ar
    29     9     1   ar
    30     8     4   ar
    31    16    10    1
    32    25    26    1
    33    17    18    1
@<TRIPOS>MOLECULE
*****
 30 33 0 0 0
SMALL
GASTEIGER

@<TRIPOS>ATOM
      1 C         -10.0410  -17.9376   20.4592 C.ar    1  UNL1        0.2221
      2 N         -11.0165  -18.6337   19.5571 N.ar    1  UNL1       -0.2119
      3 C         -10.5876  -19.8417   18.7784 C.ar    1  UNL1        0.1065
      4 C          -9.1831  -20.3538   18.9017 C.ar    1  UNL1        0.0756
      5 C          -8.4778  -21.5134   18.2630 C.ar    1  UNL1        0.1247
      6 N          -7.0664  -21.5340   18.7704 N.ar    1  UNL1       -0.1664
      7 N          -6.8994  -20.3871   19.7226 N.ar    1  UNL1       -0.2359
      8 C          -8.2075  -19.6577   19.8038 C.ar    1  UNL1        0.1652
      9 N          -8.6365  -18.4497   20.5826 N.ar    1  UNL1       -0.1947
     10 C          -5.6445  -20.0320   20.4636 C.3     1  UNL1        0.1068
     11 C          -5.8337  -19.2312   21.7177 C.3     1  UNL1        0.0244
     12 C          -4.7915  -18.7252   22.6705 C.3     1  UNL1        0.0020
     13 C          -3.3026  -18.8951   22.6045 C.3     1  UNL1        0.0001
     14 C          -2.4882  -19.6130   21.5694 C.3     1  UNL1        0.0001
     15 C          -2.9616  -20.3382   20.3447 C.3     1  UNL1        0.0020
     16 C          -4.3662  -20.5247   19.8526 C.3     1  UNL1        0.0244
     17 N         -10.4700  -16.7295   21.2381 N.pl3   1  UNL1       -0.2813
     18 H         -11.3043  -16.2629   21.0028 H       1  UNL1        0.1551
     19 C          -7.9429  -15.2379   24.6497 C.ar    1  UNL1        0.1468
     20 C          -9.1697  -16.0555   24.9266 C.ar    1  UNL1        0.0369
     21 C         -10.0120  -16.5527   23.7893 C.ar    1  UNL1        0.0192
     22 C          -9.6276  -16.2323   22.3753 C.ar    1  UNL1        0.0700
     23 C          -8.4009  -15.4147   22.0984 C.ar    1  UNL1        0.1149
     24 N          -7.5585  -14.9175   23.2356 N.ar    1  UNL1       -0.2266
     25 N          -7.1006  -14.7408   25.7869 N.pl3   1  UNL1       -0.2027
     26 H          -7.3529  -13.9166   26.2627 H       1  UNL1        0.1749
     27 C          -4.6473  -16.2577   26.6115 C.3     1  UNL1        0.1996
     28 S          -5.8740  -15.4993   26.1992 S.O2    1  UNL1        0.0569
     29 O          -5.0990  -14.8474   25.0926 O.2     1  UNL1       -0.1544
     30 O          -6.6490  -16.1511   27.3058 O.2     1  UNL1       -0.1544
@<TRIPOS>BOND
     1    27    28    1
     2    28    29    2
     3    28    30    2
     4    28    25    1
     5    25    19    1
     6    19    20   ar
     7    20    21   ar
     8    21    22   ar
     9    22    17    1
    10    17     1    1
    11     1     2   ar
    12     2     3   ar
    13     3     4   ar
    14     4     5   ar
    15     5     6   ar
    16     6     7   ar
    17     7    10    1
    18    10    11    1
    19    11    12    1
    20    12    13    1
    21    13    14    1
    22    14    15    1
    23    15    16    1
    24     7     8   ar
    25     8     9   ar
    26    22    23   ar
    27    23    24   ar
    28    24    19   ar
    29     9     1   ar
    30     8     4   ar
    31    16    10    1
    32    25    26    1
    33    17    18    1
