@<TRIPOS>MOLECULE
*****
 25 27 0 0 0
SMALL
GASTEIGER

@<TRIPOS>ATOM
      1 O         -11.2027  -17.8951   21.4743 O.2     1  UNL1       -0.2262
      2 C          -9.9846  -18.0078   22.3425 C.2     1  UNL1        0.4052
      3 N          -8.7104  -18.5630   21.7785 N.am    1  UNL1       -0.2460
      4 C          -7.4924  -18.6757   22.6467 C.3     1  UNL1        0.0968
      5 C          -6.2182  -19.2310   22.0828 C.3     1  UNL1        0.0234
      6 C          -6.1620  -19.6736   20.6506 C.3     1  UNL1        0.0230
      7 C          -7.3800  -19.5609   19.7824 C.3     1  UNL1        0.0234
      8 C          -8.6543  -19.0056   20.3464 C.3     1  UNL1        0.0968
      9 O         -10.0409  -17.5652   23.7746 O.3     1  UNL1       -0.4295
     10 C          -9.6352  -16.1694   24.1447 C.3     1  UNL1        0.2367
     11 C          -8.3799  -15.9371   24.9325 C.ar    1  UNL1        0.0213
     12 C          -7.1159  -15.5399   24.2293 C.ar    1  UNL1       -0.0007
     13 C          -5.8607  -15.3077   25.0170 C.ar    1  UNL1       -0.0002
     14 C          -5.8695  -15.4726   26.5079 C.ar    1  UNL1       -0.0000
     15 C          -7.1335  -15.8698   27.2110 C.ar    1  UNL1       -0.0002
     16 C          -8.3887  -16.1020   26.4233 C.ar    1  UNL1       -0.0007
     17 C          -4.8878  -20.2288   20.0867 C.3     1  UNL1        0.0896
     18 N          -3.6216  -20.1634   20.8883 N.pl3   1  UNL1       -0.3030
     19 H          -3.3872  -20.8990   21.4991 H       1  UNL1        0.1496
     20 C          -2.7126  -18.9772   20.7591 C.ar    1  UNL1        0.2169
     21 N          -2.9421  -17.7607   21.6061 N.ar    1  UNL1       -0.2123
     22 C          -2.0330  -16.5745   21.4769 C.ar    1  UNL1        0.1034
     23 C          -0.8946  -16.6049   20.5008 C.ar    1  UNL1        0.0414
     24 C          -0.6651  -17.8214   19.6538 C.ar    1  UNL1        0.1034
     25 N          -1.5741  -19.0076   19.7829 N.ar    1  UNL1       -0.2123
@<TRIPOS>BOND
     1     1     2    2
     2     2     9    1
     3     9    10    1
     4    10    11    1
     5    11    12   ar
     6    12    13   ar
     7    13    14   ar
     8    14    15   ar
     9    15    16   ar
    10     2     3   am
    11     3     4    1
    12     4     5    1
    13     5     6    1
    14     6    17    1
    15    17    18    1
    16    18    20    1
    17    20    21   ar
    18    21    22   ar
    19    22    23   ar
    20    23    24   ar
    21    24    25   ar
    22     6     7    1
    23     7     8    1
    24    16    11   ar
    25     8     3    1
    26    25    20   ar
    27    18    19    1
@<TRIPOS>MOLECULE
*****
 25 27 0 0 0
SMALL
GASTEIGER

@<TRIPOS>ATOM
      1 O          -9.2330   -4.6216   19.3358 O.2     1  UNL1       -0.2262
      2 C         -10.4044   -4.3413   18.4417 C.2     1  UNL1        0.4052
      3 N         -11.4180   -5.4143   18.1749 N.am    1  UNL1       -0.2460
      4 C         -12.5893   -5.1340   17.2808 C.3     1  UNL1        0.0968
      5 C         -13.6029   -6.2070   17.0140 C.3     1  UNL1        0.0234
      6 C         -13.4452   -7.5604   17.6413 C.3     1  UNL1        0.0230
      7 C         -12.2738   -7.8408   18.5354 C.3     1  UNL1        0.0234
      8 C         -11.2602   -6.7677   18.8022 C.3     1  UNL1        0.0968
      9 O         -10.5621   -2.9879   17.8144 O.3     1  UNL1       -0.4295
     10 C         -11.0643   -1.8357   18.6331 C.3     1  UNL1        0.2367
     11 C         -12.5159   -1.7543   19.0022 C.ar    1  UNL1        0.0213
     12 C         -13.0941   -2.7236   19.9901 C.ar    1  UNL1       -0.0007
     13 C         -14.5456   -2.6422   20.3592 C.ar    1  UNL1       -0.0002
     14 C         -15.4190   -1.5914   19.7404 C.ar    1  UNL1       -0.0000
     15 C         -14.8409   -0.6220   18.7524 C.ar    1  UNL1       -0.0002
     16 C         -13.3893   -0.7035   18.3833 C.ar    1  UNL1       -0.0007
     17 C         -14.4588   -8.6334   17.3745 C.3     1  UNL1        0.0896
     18 N         -15.1356   -9.3272   18.5193 N.pl3   1  UNL1       -0.3030
     19 H         -14.7165  -10.1153   18.9345 H       1  UNL1        0.1496
     20 C         -16.4511   -8.8201   19.0315 C.ar    1  UNL1        0.2169
     21 N         -17.5586   -9.7842   19.3379 N.ar    1  UNL1       -0.2123
     22 C         -18.8741   -9.2770   19.8502 C.ar    1  UNL1        0.1034
     23 C         -19.0820   -7.8059   20.0561 C.ar    1  UNL1        0.0414
     24 C         -17.9744   -6.8418   19.7497 C.ar    1  UNL1        0.1034
     25 N         -16.6590   -7.3489   19.2375 N.ar    1  UNL1       -0.2123
@<TRIPOS>BOND
     1     1     2    2
     2     2     9    1
     3     9    10    1
     4    10    11    1
     5    11    12   ar
     6    12    13   ar
     7    13    14   ar
     8    14    15   ar
     9    15    16   ar
    10     2     3   am
    11     3     4    1
    12     4     5    1
    13     5     6    1
    14     6    17    1
    15    17    18    1
    16    18    20    1
    17    20    21   ar
    18    21    22   ar
    19    22    23   ar
    20    23    24   ar
    21    24    25   ar
    22     6     7    1
    23     7     8    1
    24    16    11   ar
    25     8     3    1
    26    25    20   ar
    27    18    19    1
@<TRIPOS>MOLECULE
*****
 25 27 0 0 0
SMALL
GASTEIGER

@<TRIPOS>ATOM
      1 O           6.9144   -2.3870   17.5116 O.2     1  UNL1       -0.2262
      2 C           5.8525   -2.5983   18.5498 C.2     1  UNL1        0.4052
      3 N           6.2293   -3.0691   19.9231 N.am    1  UNL1       -0.2460
      4 C           5.1674   -3.2805   20.9613 C.3     1  UNL1        0.0968
      5 C           5.5443   -3.7512   22.3346 C.3     1  UNL1        0.0234
      6 C           6.9832   -4.0107   22.6700 C.3     1  UNL1        0.0230
      7 C           8.0451   -3.7994   21.6319 C.3     1  UNL1        0.0234
      8 C           7.6682   -3.3286   20.2584 C.3     1  UNL1        0.0968
      9 O           4.4136   -2.3389   18.2144 O.3     1  UNL1       -0.4295
     10 C           3.9399   -0.9354   17.9779 C.3     1  UNL1        0.2367
     11 C           2.7485   -0.4104   18.7228 C.ar    1  UNL1        0.0213
     12 C           2.2805   -1.0995   19.9702 C.ar    1  UNL1       -0.0007
     13 C           1.0891   -0.5744   20.7151 C.ar    1  UNL1       -0.0002
     14 C           0.3658    0.6398   20.2126 C.ar    1  UNL1       -0.0000
     15 C           0.8338    1.3289   18.9653 C.ar    1  UNL1       -0.0002
     16 C           2.0252    0.8039   18.2204 C.ar    1  UNL1       -0.0007
     17 C           7.3601   -4.4815   24.0434 C.3     1  UNL1        0.0896
     18 N           6.3604   -4.4148   25.1597 N.pl3   1  UNL1       -0.3030
     19 H           5.4642   -4.0415   24.9963 H       1  UNL1        0.1496
     20 C           6.7262   -4.9168   26.5251 C.ar    1  UNL1        0.2169
     21 N           7.4637   -6.2144   26.6744 N.ar    1  UNL1       -0.2123
     22 C           7.8295   -6.7164   28.0398 C.ar    1  UNL1        0.1034
     23 C           7.4577   -5.9208   29.2558 C.ar    1  UNL1        0.0414
     24 C           6.7202   -4.6232   29.1065 C.ar    1  UNL1        0.1034
     25 N           6.3544   -4.1212   27.7412 N.ar    1  UNL1       -0.2123
@<TRIPOS>BOND
     1     1     2    2
     2     2     9    1
     3     9    10    1
     4    10    11    1
     5    11    12   ar
     6    12    13   ar
     7    13    14   ar
     8    14    15   ar
     9    15    16   ar
    10     2     3   am
    11     3     4    1
    12     4     5    1
    13     5     6    1
    14     6    17    1
    15    17    18    1
    16    18    20    1
    17    20    21   ar
    18    21    22   ar
    19    22    23   ar
    20    23    24   ar
    21    24    25   ar
    22     6     7    1
    23     7     8    1
    24    16    11   ar
    25     8     3    1
    26    25    20   ar
    27    18    19    1
@<TRIPOS>MOLECULE
*****
 25 27 0 0 0
SMALL
GASTEIGER

@<TRIPOS>ATOM
      1 O           3.8152   -1.1860   16.1479 O.2     1  UNL1       -0.2262
      2 C           4.3929   -0.4871   17.3428 C.2     1  UNL1        0.4052
      3 N           3.4966    0.2815   18.2680 N.am    1  UNL1       -0.2460
      4 C           4.0743    0.9805   19.4629 C.3     1  UNL1        0.0968
      5 C           3.1780    1.7491   20.3880 C.3     1  UNL1        0.0234
      6 C           1.7041    1.8188   20.1183 C.3     1  UNL1        0.0230
      7 C           1.1265    1.1199   18.9233 C.3     1  UNL1        0.0234
      8 C           2.0228    0.3512   17.9982 C.3     1  UNL1        0.0968
      9 O           5.8668   -0.5568   17.6126 O.3     1  UNL1       -0.4295
     10 C           6.4701   -1.8157   18.1613 C.3     1  UNL1        0.2367
     11 C           5.6431   -2.7359   19.0095 C.ar    1  UNL1        0.0213
     12 C           4.9498   -3.9106   18.3854 C.ar    1  UNL1       -0.0007
     13 C           4.1229   -4.8308   19.2335 C.ar    1  UNL1       -0.0002
     14 C           3.9892   -4.5763   20.7057 C.ar    1  UNL1       -0.0000
     15 C           4.6825   -3.4017   21.3298 C.ar    1  UNL1       -0.0002
     16 C           5.5095   -2.4815   20.4817 C.ar    1  UNL1       -0.0007
     17 C           0.8079    2.5874   21.0434 C.3     1  UNL1        0.0896
     18 N          -0.6357    2.2033   21.1802 N.pl3   1  UNL1       -0.3030
     19 H          -0.8947    1.4688   21.7824 H       1  UNL1        0.1496
     20 C          -1.6845    2.9382   20.3994 C.ar    1  UNL1        0.2169
     21 N          -3.1303    2.8069   20.7771 N.ar    1  UNL1       -0.2123
     22 C          -4.1792    3.5419   19.9962 C.ar    1  UNL1        0.1034
     23 C          -3.7823    4.4081   18.8377 C.ar    1  UNL1        0.0414
     24 C          -2.3366    4.5394   18.4600 C.ar    1  UNL1        0.1034
     25 N          -1.2877    3.8045   19.2408 N.ar    1  UNL1       -0.2123
@<TRIPOS>BOND
     1     1     2    2
     2     2     9    1
     3     9    10    1
     4    10    11    1
     5    11    12   ar
     6    12    13   ar
     7    13    14   ar
     8    14    15   ar
     9    15    16   ar
    10     2     3   am
    11     3     4    1
    12     4     5    1
    13     5     6    1
    14     6    17    1
    15    17    18    1
    16    18    20    1
    17    20    21   ar
    18    21    22   ar
    19    22    23   ar
    20    23    24   ar
    21    24    25   ar
    22     6     7    1
    23     7     8    1
    24    16    11   ar
    25     8     3    1
    26    25    20   ar
    27    18    19    1
@<TRIPOS>MOLECULE
*****
 25 27 0 0 0
SMALL
GASTEIGER

@<TRIPOS>ATOM
      1 O           7.0576    0.0837   17.0355 O.2     1  UNL1       -0.2262
      2 C           6.3696   -1.0962   17.6554 C.2     1  UNL1        0.4052
      3 N           7.0302   -1.8478   18.7728 N.am    1  UNL1       -0.2460
      4 C           6.3421   -3.0278   19.3927 C.3     1  UNL1        0.0968
      5 C           7.0027   -3.7794   20.5101 C.3     1  UNL1        0.0234
      6 C           8.3515   -3.3511   21.0076 C.3     1  UNL1        0.0230
      7 C           9.0396   -2.1712   20.3877 C.3     1  UNL1        0.0234
      8 C           8.3789   -1.4195   19.2703 C.3     1  UNL1        0.0968
      9 O           5.0208   -1.5245   17.1579 O.3     1  UNL1       -0.4295
     10 C           3.8952   -0.5350   17.0961 C.3     1  UNL1        0.2367
     11 C           2.9542   -0.3961   18.2560 C.ar    1  UNL1        0.0213
     12 C           1.8332    0.5988   18.1973 C.ar    1  UNL1       -0.0007
     13 C           0.8923    0.7377   19.3572 C.ar    1  UNL1       -0.0002
     14 C           1.0724   -0.1183   20.5757 C.ar    1  UNL1       -0.0000
     15 C           2.1934   -1.1132   20.6344 C.ar    1  UNL1       -0.0002
     16 C           3.1343   -1.2521   19.4746 C.ar    1  UNL1       -0.0007
     17 C           9.0121   -4.1027   22.1250 C.3     1  UNL1        0.0896
     18 N           8.6054   -5.5157   22.4219 N.pl3   1  UNL1       -0.3030
     19 H           8.6807   -6.2064   21.7244 H       1  UNL1        0.1496
     20 C           8.0840   -5.8762   23.7813 C.ar    1  UNL1        0.2169
     21 N           7.4337   -4.8299   24.6369 N.ar    1  UNL1       -0.2123
     22 C           6.9123   -5.1905   25.9964 C.ar    1  UNL1        0.1034
     23 C           7.0413   -6.5974   26.5002 C.ar    1  UNL1        0.0414
     24 C           7.6917   -7.6438   25.6446 C.ar    1  UNL1        0.1034
     25 N           8.2130   -7.2832   24.2852 N.ar    1  UNL1       -0.2123
@<TRIPOS>BOND
     1     1     2    2
     2     2     9    1
     3     9    10    1
     4    10    11    1
     5    11    12   ar
     6    12    13   ar
     7    13    14   ar
     8    14    15   ar
     9    15    16   ar
    10     2     3   am
    11     3     4    1
    12     4     5    1
    13     5     6    1
    14     6    17    1
    15    17    18    1
    16    18    20    1
    17    20    21   ar
    18    21    22   ar
    19    22    23   ar
    20    23    24   ar
    21    24    25   ar
    22     6     7    1
    23     7     8    1
    24    16    11   ar
    25     8     3    1
    26    25    20   ar
    27    18    19    1
@<TRIPOS>MOLECULE
*****
 25 27 0 0 0
SMALL
GASTEIGER

@<TRIPOS>ATOM
      1 O           4.0678   -1.1701   25.4879 O.2     1  UNL1       -0.2262
      2 C           3.3385   -0.6193   24.2985 C.2     1  UNL1        0.4052
      3 N           3.4440   -1.3068   22.9695 N.am    1  UNL1       -0.2460
      4 C           2.7146   -0.7560   21.7802 C.3     1  UNL1        0.0968
      5 C           2.8202   -1.4434   20.4512 C.3     1  UNL1        0.0234
      6 C           3.6551   -2.6818   20.3116 C.3     1  UNL1        0.0230
      7 C           4.3845   -3.2326   21.5009 C.3     1  UNL1        0.0234
      8 C           4.2789   -2.5450   22.8300 C.3     1  UNL1        0.0968
      9 O           2.5035    0.6191   24.4381 O.3     1  UNL1       -0.4295
     10 C           2.4927    1.3741   25.7342 C.3     1  UNL1        0.2367
     11 C           1.5332    0.9864   26.8201 C.ar    1  UNL1        0.0213
     12 C           0.0828    1.3513   26.7049 C.ar    1  UNL1       -0.0007
     13 C          -0.8766    0.9636   27.7907 C.ar    1  UNL1       -0.0002
     14 C          -0.3857    0.2110   28.9918 C.ar    1  UNL1       -0.0000
     15 C           1.0647   -0.1539   29.1070 C.ar    1  UNL1       -0.0002
     16 C           2.0241    0.2338   28.0211 C.ar    1  UNL1       -0.0007
     17 C           3.7607   -3.3693   18.9826 C.3     1  UNL1        0.0896
     18 N           5.0492   -3.3258   18.2159 N.pl3   1  UNL1       -0.3030
     19 H           5.4180   -4.1511   17.8259 H       1  UNL1        0.1496
     20 C           5.7759   -2.0250   18.0436 C.ar    1  UNL1        0.2169
     21 N           7.0526   -1.7745   18.7901 N.ar    1  UNL1       -0.2123
     22 C           7.7793   -0.4736   18.6177 C.ar    1  UNL1        0.1034
     23 C           7.2293    0.5767   17.6989 C.ar    1  UNL1        0.0414
     24 C           5.9526    0.3262   16.9524 C.ar    1  UNL1        0.1034
     25 N           5.2259   -0.9746   17.1247 N.ar    1  UNL1       -0.2123
@<TRIPOS>BOND
     1     1     2    2
     2     2     9    1
     3     9    10    1
     4    10    11    1
     5    11    12   ar
     6    12    13   ar
     7    13    14   ar
     8    14    15   ar
     9    15    16   ar
    10     2     3   am
    11     3     4    1
    12     4     5    1
    13     5     6    1
    14     6    17    1
    15    17    18    1
    16    18    20    1
    17    20    21   ar
    18    21    22   ar
    19    22    23   ar
    20    23    24   ar
    21    24    25   ar
    22     6     7    1
    23     7     8    1
    24    16    11   ar
    25     8     3    1
    26    25    20   ar
    27    18    19    1
@<TRIPOS>MOLECULE
*****
 25 27 0 0 0
SMALL
GASTEIGER

@<TRIPOS>ATOM
      1 O           2.0032    2.2013   34.3972 O.2     1  UNL1       -0.2262
      2 C           3.4349    2.0600   34.8220 C.2     1  UNL1        0.4052
      3 N           4.2729    0.9430   34.2743 N.am    1  UNL1       -0.2460
      4 C           5.7045    0.8017   34.6990 C.3     1  UNL1        0.0968
      5 C           6.5426   -0.3153   34.1513 C.3     1  UNL1        0.0234
      6 C           5.9490   -1.2910   33.1788 C.3     1  UNL1        0.0230
      7 C           4.5174   -1.1496   32.7540 C.3     1  UNL1        0.0234
      8 C           3.6793   -0.0326   33.3018 C.3     1  UNL1        0.0968
      9 O           4.0284    3.0357   35.7945 O.3     1  UNL1       -0.4295
     10 C           4.1277    2.6794   37.2482 C.3     1  UNL1        0.2367
     11 C           2.9078    2.2265   37.9944 C.ar    1  UNL1        0.0213
     12 C           1.7464    3.1595   38.1698 C.ar    1  UNL1       -0.0007
     13 C           0.5266    2.7065   38.9160 C.ar    1  UNL1       -0.0002
     14 C           0.4681    1.3206   39.4867 C.ar    1  UNL1       -0.0000
     15 C           1.6294    0.3876   39.3113 C.ar    1  UNL1       -0.0002
     16 C           2.8493    0.8405   38.5651 C.ar    1  UNL1       -0.0007
     17 C           6.7870   -2.4080   32.6311 C.3     1  UNL1        0.0896
     18 N           6.1287   -3.6146   32.0306 N.pl3   1  UNL1       -0.3030
     19 H           5.3779   -4.0487   32.4965 H       1  UNL1        0.1496
     20 C           6.6144   -4.1599   30.7204 C.ar    1  UNL1        0.2169
     21 N           6.6934   -3.2655   29.5188 N.ar    1  UNL1       -0.2123
     22 C           7.1791   -3.8108   28.2085 C.ar    1  UNL1        0.1034
     23 C           7.5857   -5.2505   28.0999 C.ar    1  UNL1        0.0414
     24 C           7.5067   -6.1449   29.3014 C.ar    1  UNL1        0.1034
     25 N           7.0210   -5.5997   30.6117 N.ar    1  UNL1       -0.2123
@<TRIPOS>BOND
     1     1     2    2
     2     2     9    1
     3     9    10    1
     4    10    11    1
     5    11    12   ar
     6    12    13   ar
     7    13    14   ar
     8    14    15   ar
     9    15    16   ar
    10     2     3   am
    11     3     4    1
    12     4     5    1
    13     5     6    1
    14     6    17    1
    15    17    18    1
    16    18    20    1
    17    20    21   ar
    18    21    22   ar
    19    22    23   ar
    20    23    24   ar
    21    24    25   ar
    22     6     7    1
    23     7     8    1
    24    16    11   ar
    25     8     3    1
    26    25    20   ar
    27    18    19    1
@<TRIPOS>MOLECULE
*****
 25 27 0 0 0
SMALL
GASTEIGER

@<TRIPOS>ATOM
      1 O           7.4762   -5.6651   23.2464 O.2     1  UNL1       -0.2262
      2 C           7.0037   -4.6230   24.2163 C.2     1  UNL1        0.4052
      3 N           7.0344   -4.9010   25.6899 N.am    1  UNL1       -0.2460
      4 C           6.5619   -3.8588   26.6598 C.3     1  UNL1        0.0968
      5 C           6.5926   -4.1369   28.1334 C.3     1  UNL1        0.0234
      6 C           7.0958   -5.4571   28.6373 C.3     1  UNL1        0.0230
      7 C           7.5683   -6.4993   27.6674 C.3     1  UNL1        0.0234
      8 C           7.5376   -6.2212   26.1937 C.3     1  UNL1        0.0968
      9 O           6.5005   -3.3027   23.7124 O.3     1  UNL1       -0.4295
     10 C           5.0252   -3.0490   23.6179 C.3     1  UNL1        0.2367
     11 C           4.3927   -2.7894   22.2827 C.ar    1  UNL1        0.0213
     12 C           3.5897   -1.5417   22.0630 C.ar    1  UNL1       -0.0007
     13 C           2.9574   -1.2822   20.7278 C.ar    1  UNL1       -0.0002
     14 C           3.1280   -2.2705   19.6124 C.ar    1  UNL1       -0.0000
     15 C           3.9310   -3.5182   19.8321 C.ar    1  UNL1       -0.0002
     16 C           4.5634   -3.7777   21.1672 C.ar    1  UNL1       -0.0007
     17 C           7.1265   -5.7351   30.1110 C.3     1  UNL1        0.0896
     18 N           8.0985   -5.0072   30.9915 N.pl3   1  UNL1       -0.3030
     19 H           9.0182   -5.3435   31.0929 H       1  UNL1        0.1496
     20 C           7.6693   -3.7667   31.7174 C.ar    1  UNL1        0.2169
     21 N           8.6981   -2.8556   32.3185 N.ar    1  UNL1       -0.2123
     22 C           8.2688   -1.6151   33.0445 C.ar    1  UNL1        0.1034
     23 C           6.8108   -1.2857   33.1693 C.ar    1  UNL1        0.0414
     24 C           5.7819   -2.1969   32.5681 C.ar    1  UNL1        0.1034
     25 N           6.2112   -3.4373   31.8422 N.ar    1  UNL1       -0.2123
@<TRIPOS>BOND
     1     1     2    2
     2     2     9    1
     3     9    10    1
     4    10    11    1
     5    11    12   ar
     6    12    13   ar
     7    13    14   ar
     8    14    15   ar
     9    15    16   ar
    10     2     3   am
    11     3     4    1
    12     4     5    1
    13     5     6    1
    14     6    17    1
    15    17    18    1
    16    18    20    1
    17    20    21   ar
    18    21    22   ar
    19    22    23   ar
    20    23    24   ar
    21    24    25   ar
    22     6     7    1
    23     7     8    1
    24    16    11   ar
    25     8     3    1
    26    25    20   ar
    27    18    19    1
@<TRIPOS>MOLECULE
*****
 25 27 0 0 0
SMALL
GASTEIGER

@<TRIPOS>ATOM
      1 O           7.5509    0.8572   17.0888 O.2     1  UNL1       -0.2262
      2 C           6.3703   -0.0407   17.3120 C.2     1  UNL1        0.4052
      3 N           5.0518    0.5429   17.7255 N.am    1  UNL1       -0.2460
      4 C           3.8711   -0.3550   17.9486 C.3     1  UNL1        0.0968
      5 C           2.5527    0.2285   18.3621 C.3     1  UNL1        0.0234
      6 C           2.4148    1.7100   18.5525 C.3     1  UNL1        0.0230
      7 C           3.5954    2.6079   18.3293 C.3     1  UNL1        0.0234
      8 C           4.9140    2.0243   17.9158 C.3     1  UNL1        0.0968
      9 O           6.5082   -1.5222   17.1216 O.3     1  UNL1       -0.4295
     10 C           6.9911   -2.3819   18.2520 C.3     1  UNL1        0.2367
     11 C           6.0038   -3.0190   19.1845 C.ar    1  UNL1        0.0213
     12 C           4.9586   -3.9512   18.6475 C.ar    1  UNL1       -0.0007
     13 C           3.9715   -4.5883   19.5800 C.ar    1  UNL1       -0.0002
     14 C           4.0295   -4.2931   21.0495 C.ar    1  UNL1       -0.0000
     15 C           5.0746   -3.3608   21.5865 C.ar    1  UNL1       -0.0002
     16 C           6.0618   -2.7237   20.6540 C.ar    1  UNL1       -0.0007
     17 C           1.0963    2.2936   18.9660 C.3     1  UNL1        0.0896
     18 N           0.1706    1.5066   19.8456 N.pl3   1  UNL1       -0.3030
     19 H          -0.3618    0.7705   19.4662 H       1  UNL1        0.1496
     20 C           0.0561    1.8411   21.3033 C.ar    1  UNL1        0.2169
     21 N          -0.8359    2.9622   21.7478 N.ar    1  UNL1       -0.2123
     22 C          -0.9503    3.2967   23.2056 C.ar    1  UNL1        0.1034
     23 C          -0.1728    2.5102   24.2188 C.ar    1  UNL1        0.0414
     24 C           0.7193    1.3891   23.7744 C.ar    1  UNL1        0.1034
     25 N           0.8337    1.0546   22.3167 N.ar    1  UNL1       -0.2123
@<TRIPOS>BOND
     1     1     2    2
     2     2     9    1
     3     9    10    1
     4    10    11    1
     5    11    12   ar
     6    12    13   ar
     7    13    14   ar
     8    14    15   ar
     9    15    16   ar
    10     2     3   am
    11     3     4    1
    12     4     5    1
    13     5     6    1
    14     6    17    1
    15    17    18    1
    16    18    20    1
    17    20    21   ar
    18    21    22   ar
    19    22    23   ar
    20    23    24   ar
    21    24    25   ar
    22     6     7    1
    23     7     8    1
    24    16    11   ar
    25     8     3    1
    26    25    20   ar
    27    18    19    1
