@<TRIPOS>MOLECULE
*****
 33 37 0 0 0
SMALL
GASTEIGER

@<TRIPOS>ATOM
      1 C          -0.5359  -18.8931   19.6333 C.3     1  UNL1        0.1287
      2 P          -1.5521  -18.3637   20.6015 P.3     1  UNL1        0.3439
      3 O          -0.3043  -17.7648   21.1800 O.2     1  UNL1       -0.2577
      4 O          -2.1348  -17.6264   21.7705 O.3     1  UNL1       -0.2940
      5 C          -3.6124  -17.6718   22.0249 C.3     1  UNL1        0.1538
      6 C          -4.5072  -18.4545   21.1102 C.3     1  UNL1        0.0611
      7 C          -5.4020  -19.2372   20.1955 C.3     1  UNL1        0.0051
      8 C          -6.8796  -19.2825   20.4499 C.3     1  UNL1        0.0022
      9 C          -7.4624  -18.5452   21.6189 C.3     1  UNL1        0.0268
     10 C          -6.5676  -17.7625   22.5336 C.3     1  UNL1        0.1420
     11 C          -7.1504  -17.0251   23.7027 C.ar    1  UNL1        0.0616
     12 C          -8.6279  -17.0705   23.9571 C.ar    1  UNL1        0.1407
     13 F          -9.7840  -17.7333   23.2683 F       1  UNL1       -0.2043
     14 C          -9.2107  -16.3332   25.1261 C.ar    1  UNL1        0.0319
     15 C          -8.3159  -15.5505   26.0408 C.ar    1  UNL1        0.0351
     16 C          -6.8383  -15.5051   25.7865 C.ar    1  UNL1        0.1737
     17 F          -5.9435  -14.7224   26.7012 F       1  UNL1       -0.2010
     18 C          -6.2556  -16.2425   24.6174 C.ar    1  UNL1        0.1654
     19 O          -4.7780  -16.1971   24.3630 O.3     1  UNL1       -0.4733
     20 C          -4.1952  -16.9344   23.1940 C.3     1  UNL1        0.2075
     21 C          -5.0900  -17.7171   22.2792 C.3     1  UNL1        0.0732
     22 C          -3.9244  -19.1918   19.9412 C.3     1  UNL1        0.1538
     23 O          -2.4469  -19.1464   19.6868 O.3     1  UNL1       -0.2940
     24 S          -8.0452  -17.8079   22.7879 S.O2    1  UNL1        0.0093
     25 O          -8.3434  -18.4538   23.1475 O.2     1  UNL1       -0.1684
     26 O          -8.5484  -16.5066   22.2373 O.2     1  UNL1       -0.1684
     27 C          -9.5228  -17.8533   23.0423 C.ar    1  UNL1        0.1059
     28 C         -10.0954  -18.8997   23.9517 C.ar    1  UNL1        0.0192
     29 C         -11.5730  -18.9450   24.2061 C.ar    1  UNL1        0.0127
     30 C         -12.4779  -17.9440   23.5510 C.ar    1  UNL1        0.0578
     31 CL        -13.9555  -17.9894   23.8054 Cl      1  UNL1       -0.0822
     32 C         -11.9052  -16.8976   22.6416 C.ar    1  UNL1        0.0127
     33 C         -10.4276  -16.8522   22.3872 C.ar    1  UNL1        0.0192
@<TRIPOS>BOND
     1     1     2    1
     2     2     3    2
     3     2     4    1
     4     4     5    1
     5     5     6    1
     6     6     7    1
     7     7     8    1
     8     8     9    1
     9     9    10    1
    10    10    24    1
    11    24    25    2
    12    24    26    2
    13    24    27    1
    14    27    28   ar
    15    28    29   ar
    16    29    30   ar
    17    30    31    1
    18    30    32   ar
    19    32    33   ar
    20    10    11    1
    21    11    12   ar
    22    12    13    1
    23    12    14   ar
    24    14    15   ar
    25    15    16   ar
    26    16    17    1
    27    16    18   ar
    28    18    19    1
    29    19    20    1
    30    21    20    1
    31     6    22    1
    32    22    23    1
    33    23     2    1
    34    21     6    1
    35    21    10    1
    36    33    27   ar
    37    18    11   ar
@<TRIPOS>MOLECULE
*****
 33 37 0 0 0
SMALL
GASTEIGER

@<TRIPOS>ATOM
      1 C         -18.1180  -10.8622   18.2315 C.3     1  UNL1        0.1287
      2 P         -16.8775  -10.0264   18.3452 P.3     1  UNL1        0.3439
      3 O         -16.3280  -11.3639   18.7444 O.2     1  UNL1       -0.2577
      4 O         -15.4463   -9.6551   18.5975 O.3     1  UNL1       -0.2940
      5 C         -14.9954   -8.2367   18.4111 C.3     1  UNL1        0.1538
      6 C         -15.9756   -7.1896   17.9725 C.3     1  UNL1        0.0611
      7 C         -16.9559   -6.1424   17.5338 C.3     1  UNL1        0.0051
      8 C         -16.5050   -4.7240   17.3474 C.3     1  UNL1        0.0022
      9 C         -15.0738   -4.3527   17.5997 C.3     1  UNL1        0.0268
     10 C         -14.0935   -5.3999   18.0384 C.3     1  UNL1        0.1420
     11 C         -12.6622   -5.0286   18.2907 C.ar    1  UNL1        0.0616
     12 C         -12.2112   -3.6102   18.1043 C.ar    1  UNL1        0.1407
     13 F         -12.8995   -2.3442   17.6879 F       1  UNL1       -0.2043
     14 C         -10.7800   -3.2390   18.3566 C.ar    1  UNL1        0.0319
     15 C          -9.7996   -4.2861   18.7953 C.ar    1  UNL1        0.0351
     16 C         -10.2506   -5.7046   18.9817 C.ar    1  UNL1        0.1737
     17 F          -9.2703   -6.7517   19.4204 F       1  UNL1       -0.2010
     18 C         -11.6819   -6.0758   18.7294 C.ar    1  UNL1        0.1654
     19 O         -12.1328   -7.4942   18.9158 O.3     1  UNL1       -0.4733
     20 C         -13.5641   -7.8655   18.6635 C.3     1  UNL1        0.2075
     21 C         -14.5444   -6.8183   18.2248 C.3     1  UNL1        0.0732
     22 C         -17.4069   -7.5608   17.7202 C.3     1  UNL1        0.1538
     23 O         -17.8578   -8.9793   17.9065 O.3     1  UNL1       -0.2940
     24 S         -13.6425   -3.9815   17.8520 S.O2    1  UNL1        0.0093
     25 O         -13.4608   -3.7404   17.1143 O.2     1  UNL1       -0.1684
     26 O         -13.6765   -3.4049   19.2363 O.2     1  UNL1       -0.1684
     27 C         -13.1916   -2.5631   17.6656 C.ar    1  UNL1        0.1059
     28 C         -13.3106   -1.5836   18.7954 C.ar    1  UNL1        0.0192
     29 C         -12.8597   -0.1652   18.6090 C.ar    1  UNL1        0.0127
     30 C         -12.2897    0.2738   17.2929 C.ar    1  UNL1        0.0578
     31 CL        -11.8387    1.6922   17.1065 Cl      1  UNL1       -0.0822
     32 C         -12.1706   -0.7057   16.1630 C.ar    1  UNL1        0.0127
     33 C         -12.6216   -2.1241   16.3494 C.ar    1  UNL1        0.0192
@<TRIPOS>BOND
     1     1     2    1
     2     2     3    2
     3     2     4    1
     4     4     5    1
     5     5     6    1
     6     6     7    1
     7     7     8    1
     8     8     9    1
     9     9    10    1
    10    10    24    1
    11    24    25    2
    12    24    26    2
    13    24    27    1
    14    27    28   ar
    15    28    29   ar
    16    29    30   ar
    17    30    31    1
    18    30    32   ar
    19    32    33   ar
    20    10    11    1
    21    11    12   ar
    22    12    13    1
    23    12    14   ar
    24    14    15   ar
    25    15    16   ar
    26    16    17    1
    27    16    18   ar
    28    18    19    1
    29    19    20    1
    30    21    20    1
    31     6    22    1
    32    22    23    1
    33    23     2    1
    34    21     6    1
    35    21    10    1
    36    33    27   ar
    37    18    11   ar
@<TRIPOS>MOLECULE
*****
 33 37 0 0 0
SMALL
GASTEIGER

@<TRIPOS>ATOM
      1 C           7.4972   -3.9587   28.5792 C.3     1  UNL1        0.1287
      2 P           7.0453   -3.9458   27.1489 P.3     1  UNL1        0.3439
      3 O           7.8374   -5.2195   27.1603 O.2     1  UNL1       -0.2577
      4 O           6.8685   -4.3751   25.7226 O.3     1  UNL1       -0.2940
      5 C           6.0566   -3.5353   24.7817 C.3     1  UNL1        0.1538
      6 C           5.4214   -2.2661   25.2670 C.3     1  UNL1        0.0611
      7 C           4.7862   -0.9969   25.7523 C.3     1  UNL1        0.0051
      8 C           3.9742   -0.1570   24.8114 C.3     1  UNL1        0.0022
      9 C           3.7975   -0.5864   23.3851 C.3     1  UNL1        0.0268
     10 C           4.4327   -1.8556   22.8997 C.3     1  UNL1        0.1420
     11 C           4.2559   -2.2851   21.4734 C.ar    1  UNL1        0.0616
     12 C           3.4440   -1.4452   20.5324 C.ar    1  UNL1        0.1407
     13 F           2.6895   -0.1564   20.6727 F       1  UNL1       -0.2043
     14 C           3.2672   -1.8746   19.1061 C.ar    1  UNL1        0.0319
     15 C           3.9024   -3.1439   18.6207 C.ar    1  UNL1        0.0351
     16 C           4.7143   -3.9837   19.5617 C.ar    1  UNL1        0.1737
     17 F           5.3495   -5.2529   19.0764 F       1  UNL1       -0.2010
     18 C           4.8911   -3.5543   20.9881 C.ar    1  UNL1        0.1654
     19 O           5.7030   -4.3941   21.9290 O.3     1  UNL1       -0.4733
     20 C           5.8798   -3.9648   23.3553 C.3     1  UNL1        0.2075
     21 C           5.2446   -2.6955   23.8407 C.3     1  UNL1        0.0732
     22 C           5.5982   -1.8367   26.6933 C.3     1  UNL1        0.1538
     23 O           6.4101   -2.6766   27.6342 O.3     1  UNL1       -0.2940
     24 S           3.6207   -1.0158   21.9588 S.O2    1  UNL1        0.0093
     25 O           2.8307   -1.1219   21.9491 O.2     1  UNL1       -0.1684
     26 O           4.6389   -0.1597   21.2656 O.2     1  UNL1       -0.1684
     27 C           2.8088   -0.1760   21.0178 C.ar    1  UNL1        0.1059
     28 C           3.4609    0.9379   20.2537 C.ar    1  UNL1        0.0192
     29 C           2.6489    1.7777   19.3127 C.ar    1  UNL1        0.0127
     30 C           1.1849    1.5037   19.1359 C.ar    1  UNL1        0.0578
     31 CL          0.3729    2.3436   18.1949 Cl      1  UNL1       -0.0822
     32 C           0.5326    0.3898   19.9001 C.ar    1  UNL1        0.0127
     33 C           1.3446   -0.4500   20.8410 C.ar    1  UNL1        0.0192
@<TRIPOS>BOND
     1     1     2    1
     2     2     3    2
     3     2     4    1
     4     4     5    1
     5     5     6    1
     6     6     7    1
     7     7     8    1
     8     8     9    1
     9     9    10    1
    10    10    24    1
    11    24    25    2
    12    24    26    2
    13    24    27    1
    14    27    28   ar
    15    28    29   ar
    16    29    30   ar
    17    30    31    1
    18    30    32   ar
    19    32    33   ar
    20    10    11    1
    21    11    12   ar
    22    12    13    1
    23    12    14   ar
    24    14    15   ar
    25    15    16   ar
    26    16    17    1
    27    16    18   ar
    28    18    19    1
    29    19    20    1
    30    21    20    1
    31     6    22    1
    32    22    23    1
    33    23     2    1
    34    21     6    1
    35    21    10    1
    36    33    27   ar
    37    18    11   ar
@<TRIPOS>MOLECULE
*****
 33 37 0 0 0
SMALL
GASTEIGER

@<TRIPOS>ATOM
      1 C           8.1127   -7.6790   25.5550 C.3     1  UNL1        0.1287
      2 P           7.6083   -6.3886   26.1300 P.3     1  UNL1        0.3439
      3 O           7.4687   -6.0936   24.6659 O.2     1  UNL1       -0.2577
      4 O           7.0554   -4.9958   26.1965 O.3     1  UNL1       -0.2940
      5 C           6.8173   -4.3462   27.5274 C.3     1  UNL1        0.1538
      6 C           7.1321   -5.0893   28.7918 C.3     1  UNL1        0.0611
      7 C           7.4468   -5.8324   30.0561 C.3     1  UNL1        0.0051
      8 C           7.2087   -5.1827   31.3870 C.3     1  UNL1        0.0022
      9 C           6.6558   -3.7899   31.4535 C.3     1  UNL1        0.0268
     10 C           6.3411   -3.0468   30.1891 C.3     1  UNL1        0.1420
     11 C           5.7882   -1.6540   30.2556 C.ar    1  UNL1        0.0616
     12 C           5.5500   -1.0043   31.5865 C.ar    1  UNL1        0.1407
     13 F           5.7450   -1.4401   33.0085 F       1  UNL1       -0.2043
     14 C           4.9972    0.3885   31.6530 C.ar    1  UNL1        0.0319
     15 C           4.6824    1.1316   30.3886 C.ar    1  UNL1        0.0351
     16 C           4.9205    0.4820   29.0577 C.ar    1  UNL1        0.1737
     17 F           4.6058    1.2251   27.7933 F       1  UNL1       -0.2010
     18 C           5.4734   -0.9109   28.9912 C.ar    1  UNL1        0.1654
     19 O           5.7115   -1.5605   27.6603 O.3     1  UNL1       -0.4733
     20 C           6.2644   -2.9533   27.5938 C.3     1  UNL1        0.2075
     21 C           6.5792   -3.6965   28.8583 C.3     1  UNL1        0.0732
     22 C           7.6849   -6.4820   28.7253 C.3     1  UNL1        0.1538
     23 O           7.9231   -7.1317   27.3944 O.3     1  UNL1       -0.2940
     24 S           6.1029   -2.3972   31.5200 S.O2    1  UNL1        0.0093
     25 O           5.3859   -2.4858   31.8568 O.2     1  UNL1       -0.1684
     26 O           7.4052   -1.7214   31.8323 O.2     1  UNL1       -0.1684
     27 C           5.8648   -1.7475   32.8509 C.ar    1  UNL1        0.1059
     28 C           4.5398   -1.9051   33.5361 C.ar    1  UNL1        0.0192
     29 C           4.3017   -1.2555   34.8670 C.ar    1  UNL1        0.0127
     30 C           5.3886   -0.4482   35.5126 C.ar    1  UNL1        0.0578
     31 CL          5.1504    0.2015   36.8435 Cl      1  UNL1       -0.0822
     32 C           6.7136   -0.2905   34.8274 C.ar    1  UNL1        0.0127
     33 C           6.9518   -0.9401   33.4966 C.ar    1  UNL1        0.0192
@<TRIPOS>BOND
     1     1     2    1
     2     2     3    2
     3     2     4    1
     4     4     5    1
     5     5     6    1
     6     6     7    1
     7     7     8    1
     8     8     9    1
     9     9    10    1
    10    10    24    1
    11    24    25    2
    12    24    26    2
    13    24    27    1
    14    27    28   ar
    15    28    29   ar
    16    29    30   ar
    17    30    31    1
    18    30    32   ar
    19    32    33   ar
    20    10    11    1
    21    11    12   ar
    22    12    13    1
    23    12    14   ar
    24    14    15   ar
    25    15    16   ar
    26    16    17    1
    27    16    18   ar
    28    18    19    1
    29    19    20    1
    30    21    20    1
    31     6    22    1
    32    22    23    1
    33    23     2    1
    34    21     6    1
    35    21    10    1
    36    33    27   ar
    37    18    11   ar
@<TRIPOS>MOLECULE
*****
 33 37 0 0 0
SMALL
GASTEIGER

@<TRIPOS>ATOM
      1 C         -17.3038  -10.7274   18.2375 C.3     1  UNL1        0.1287
      2 P         -16.3349   -9.5880   18.3521 P.3     1  UNL1        0.3439
      3 O         -15.4080  -10.7431   18.5900 O.2     1  UNL1       -0.2577
      4 O         -15.0442   -8.8498   18.5493 O.3     1  UNL1       -0.2940
      5 C         -15.0168   -7.3522   18.4689 C.3     1  UNL1        0.1538
      6 C         -16.2802   -6.5928   18.1912 C.3     1  UNL1        0.0611
      7 C         -17.5435   -5.8334   17.9136 C.3     1  UNL1        0.0051
      8 C         -17.5162   -4.3358   17.8331 C.3     1  UNL1        0.0022
      9 C         -16.2254   -3.5976   18.0304 C.3     1  UNL1        0.0268
     10 C         -14.9620   -4.3570   18.3080 C.3     1  UNL1        0.1420
     11 C         -13.6712   -3.6188   18.5053 C.ar    1  UNL1        0.0616
     12 C         -13.6438   -2.1212   18.4249 C.ar    1  UNL1        0.1407
     13 F         -14.6856   -1.0721   18.1717 F       1  UNL1       -0.2043
     14 C         -12.3530   -1.3830   18.6221 C.ar    1  UNL1        0.0319
     15 C         -11.0896   -2.1424   18.8998 C.ar    1  UNL1        0.0351
     16 C         -11.1169   -3.6400   18.9802 C.ar    1  UNL1        0.1737
     17 F          -9.8536   -4.3994   19.2579 F       1  UNL1       -0.2010
     18 C         -12.4078   -4.3782   18.7830 C.ar    1  UNL1        0.1654
     19 O         -12.4352   -5.8758   18.8634 O.3     1  UNL1       -0.4733
     20 C         -13.7259   -6.6140   18.6662 C.3     1  UNL1        0.2075
     21 C         -14.9894   -5.8546   18.3885 C.3     1  UNL1        0.0732
     22 C         -17.5709   -7.3310   17.9940 C.3     1  UNL1        0.1538
     23 O         -17.5983   -8.8286   18.0744 O.3     1  UNL1       -0.2940
     24 S         -14.9346   -2.8594   18.2276 S.O2    1  UNL1        0.0093
     25 O         -14.8522   -2.5246   17.5089 O.2     1  UNL1       -0.1684
     26 O         -15.0845   -2.4165   19.6529 O.2     1  UNL1       -0.1684
     27 C         -14.9073   -1.3618   18.1472 C.ar    1  UNL1        0.1059
     28 C         -14.5476   -0.6865   16.8570 C.ar    1  UNL1        0.0192
     29 C         -14.5203    0.8111   16.7766 C.ar    1  UNL1        0.0127
     30 C         -14.8525    1.6334   17.9863 C.ar    1  UNL1        0.0578
     31 CL        -14.8251    3.1310   17.9059 Cl      1  UNL1       -0.0822
     32 C         -15.2122    0.9581   19.2765 C.ar    1  UNL1        0.0127
     33 C         -15.2395   -0.5395   19.3570 C.ar    1  UNL1        0.0192
@<TRIPOS>BOND
     1     1     2    1
     2     2     3    2
     3     2     4    1
     4     4     5    1
     5     5     6    1
     6     6     7    1
     7     7     8    1
     8     8     9    1
     9     9    10    1
    10    10    24    1
    11    24    25    2
    12    24    26    2
    13    24    27    1
    14    27    28   ar
    15    28    29   ar
    16    29    30   ar
    17    30    31    1
    18    30    32   ar
    19    32    33   ar
    20    10    11    1
    21    11    12   ar
    22    12    13    1
    23    12    14   ar
    24    14    15   ar
    25    15    16   ar
    26    16    17    1
    27    16    18   ar
    28    18    19    1
    29    19    20    1
    30    21    20    1
    31     6    22    1
    32    22    23    1
    33    23     2    1
    34    21     6    1
    35    21    10    1
    36    33    27   ar
    37    18    11   ar
@<TRIPOS>MOLECULE
*****
 33 37 0 0 0
SMALL
GASTEIGER

@<TRIPOS>ATOM
      1 C         -10.0118   -7.7257   18.6887 C.3     1  UNL1        0.1287
      2 P         -10.5067   -6.3229   18.4953 P.3     1  UNL1        0.3439
      3 O          -9.1660   -6.2202   17.8304 O.2     1  UNL1       -0.2577
      4 O         -10.5359   -4.8845   18.0710 O.3     1  UNL1       -0.2940
      5 C         -11.7340   -4.0360   18.3787 C.3     1  UNL1        0.1538
      6 C         -12.9028   -4.6259   19.1108 C.3     1  UNL1        0.0611
      7 C         -14.0715   -5.2158   19.8428 C.3     1  UNL1        0.0051
      8 C         -15.2696   -4.3672   20.1506 C.3     1  UNL1        0.0022
      9 C         -15.2988   -2.9288   19.7263 C.3     1  UNL1        0.0268
     10 C         -14.1300   -2.3389   18.9943 C.3     1  UNL1        0.1420
     11 C         -14.1592   -0.9004   18.5699 C.ar    1  UNL1        0.0616
     12 C         -15.3573   -0.0519   18.8777 C.ar    1  UNL1        0.1407
     13 F         -16.6628   -0.3049   19.5717 F       1  UNL1       -0.2043
     14 C         -15.3865    1.3865   18.4534 C.ar    1  UNL1        0.0319
     15 C         -14.2177    1.9765   17.7213 C.ar    1  UNL1        0.0351
     16 C         -13.0197    1.1279   17.4136 C.ar    1  UNL1        0.1737
     17 F         -11.8509    1.7178   16.6815 F       1  UNL1       -0.2010
     18 C         -12.9905   -0.3105   17.8379 C.ar    1  UNL1        0.1654
     19 O         -11.7924   -1.1591   17.5301 O.3     1  UNL1       -0.4733
     20 C         -11.7632   -2.5975   17.9544 C.3     1  UNL1        0.2075
     21 C         -12.9320   -3.1875   18.6865 C.3     1  UNL1        0.0732
     22 C         -12.8735   -6.0643   19.5351 C.3     1  UNL1        0.1538
     23 O         -11.6755   -6.9128   19.2273 O.3     1  UNL1       -0.2940
     24 S         -15.3281   -1.4904   19.3020 S.O2    1  UNL1        0.0093
     25 O         -15.3935   -1.1875   20.0365 O.2     1  UNL1       -0.1684
     26 O         -16.1008   -1.4735   18.0165 O.2     1  UNL1       -0.1684
     27 C         -16.5261   -0.6419   19.6098 C.ar    1  UNL1        0.1059
     28 C         -16.5122    0.2722   20.7990 C.ar    1  UNL1        0.0192
     29 C         -17.7103    1.1208   21.1067 C.ar    1  UNL1        0.0127
     30 C         -18.9222    1.0552   20.2253 C.ar    1  UNL1        0.0578
     31 CL        -20.1202    1.9037   20.5331 Cl      1  UNL1       -0.0822
     32 C         -18.9361    0.1411   19.0360 C.ar    1  UNL1        0.0127
     33 C         -17.7381   -0.7075   18.7283 C.ar    1  UNL1        0.0192
@<TRIPOS>BOND
     1     1     2    1
     2     2     3    2
     3     2     4    1
     4     4     5    1
     5     5     6    1
     6     6     7    1
     7     7     8    1
     8     8     9    1
     9     9    10    1
    10    10    24    1
    11    24    25    2
    12    24    26    2
    13    24    27    1
    14    27    28   ar
    15    28    29   ar
    16    29    30   ar
    17    30    31    1
    18    30    32   ar
    19    32    33   ar
    20    10    11    1
    21    11    12   ar
    22    12    13    1
    23    12    14   ar
    24    14    15   ar
    25    15    16   ar
    26    16    17    1
    27    16    18   ar
    28    18    19    1
    29    19    20    1
    30    21    20    1
    31     6    22    1
    32    22    23    1
    33    23     2    1
    34    21     6    1
    35    21    10    1
    36    33    27   ar
    37    18    11   ar
@<TRIPOS>MOLECULE
*****
 33 37 0 0 0
SMALL
GASTEIGER

@<TRIPOS>ATOM
      1 C           4.8026   -3.9349   18.6380 C.3     1  UNL1        0.1287
      2 P           4.6395   -3.3851   20.0240 P.3     1  UNL1        0.3439
      3 O           5.6722   -4.4418   20.2828 O.2     1  UNL1       -0.2577
      4 O           4.8349   -3.2023   21.4999 O.3     1  UNL1       -0.2940
      5 C           4.0544   -2.1538   22.2357 C.3     1  UNL1        0.1538
      6 C           3.0784   -1.2881   21.4956 C.3     1  UNL1        0.0611
      7 C           2.1023   -0.4224   20.7555 C.3     1  UNL1        0.0051
      8 C           1.3218    0.6261   21.4913 C.3     1  UNL1        0.0022
      9 C           1.5173    0.8089   22.9672 C.3     1  UNL1        0.0268
     10 C           2.4933   -0.0568   23.7073 C.3     1  UNL1        0.1420
     11 C           2.6888    0.1260   25.1833 C.ar    1  UNL1        0.0616
     12 C           1.9083    1.1745   25.9191 C.ar    1  UNL1        0.1407
     13 F           0.8795    2.1865   25.5098 F       1  UNL1       -0.2043
     14 C           2.1038    1.3573   27.3950 C.ar    1  UNL1        0.0319
     15 C           3.0799    0.4915   28.1352 C.ar    1  UNL1        0.0351
     16 C           3.8604   -0.5570   27.3994 C.ar    1  UNL1        0.1737
     17 F           4.8364   -1.4227   28.1395 F       1  UNL1       -0.2010
     18 C           3.6649   -0.7398   25.9234 C.ar    1  UNL1        0.1654
     19 O           4.4454   -1.7883   25.1876 O.3     1  UNL1       -0.4733
     20 C           4.2499   -1.9711   23.7117 C.3     1  UNL1        0.2075
     21 C           3.2738   -1.1053   22.9715 C.3     1  UNL1        0.0732
     22 C           2.8829   -1.4709   20.0197 C.3     1  UNL1        0.1538
     23 O           3.6634   -2.5194   19.2839 O.3     1  UNL1       -0.2940
     24 S           1.7127    0.9917   24.4431 S.O2    1  UNL1        0.0093
     25 O           0.9729    0.8112   24.6786 O.2     1  UNL1       -0.1684
     26 O           2.6510    2.1599   24.5138 O.2     1  UNL1       -0.1684
     27 C           0.9322    2.0402   25.1789 C.ar    1  UNL1        0.1059
     28 C           1.4861    3.4271   25.3192 C.ar    1  UNL1        0.0192
     29 C           0.7056    4.4756   26.0549 C.ar    1  UNL1        0.0127
     30 C          -0.6289    4.1372   26.6504 C.ar    1  UNL1        0.0578
     31 CL         -1.4094    5.1857   27.3862 Cl      1  UNL1       -0.0822
     32 C          -1.1829    2.7503   26.5101 C.ar    1  UNL1        0.0127
     33 C          -0.4023    1.7018   25.7744 C.ar    1  UNL1        0.0192
@<TRIPOS>BOND
     1     1     2    1
     2     2     3    2
     3     2     4    1
     4     4     5    1
     5     5     6    1
     6     6     7    1
     7     7     8    1
     8     8     9    1
     9     9    10    1
    10    10    24    1
    11    24    25    2
    12    24    26    2
    13    24    27    1
    14    27    28   ar
    15    28    29   ar
    16    29    30   ar
    17    30    31    1
    18    30    32   ar
    19    32    33   ar
    20    10    11    1
    21    11    12   ar
    22    12    13    1
    23    12    14   ar
    24    14    15   ar
    25    15    16   ar
    26    16    17    1
    27    16    18   ar
    28    18    19    1
    29    19    20    1
    30    21    20    1
    31     6    22    1
    32    22    23    1
    33    23     2    1
    34    21     6    1
    35    21    10    1
    36    33    27   ar
    37    18    11   ar
@<TRIPOS>MOLECULE
*****
 33 37 0 0 0
SMALL
GASTEIGER

@<TRIPOS>ATOM
      1 C           3.6119    0.7133   33.4158 C.3     1  UNL1        0.1287
      2 P           4.4681   -0.4557   33.0280 P.3     1  UNL1        0.3439
      3 O           4.5742   -0.5394   34.5219 O.2     1  UNL1       -0.2577
      4 O           5.3612   -1.6537   33.1590 O.3     1  UNL1       -0.2940
      5 C           5.8508   -2.3621   31.9308 C.3     1  UNL1        0.1538
      6 C           5.4474   -1.8724   30.5716 C.3     1  UNL1        0.0611
      7 C           5.0440   -1.3828   29.2124 C.3     1  UNL1        0.0051
      8 C           5.5336   -2.0912   27.9842 C.3     1  UNL1        0.0022
      9 C           6.4266   -3.2892   28.1152 C.3     1  UNL1        0.0268
     10 C           6.8300   -3.7788   29.4744 C.3     1  UNL1        0.1420
     11 C           7.7231   -4.9769   29.6055 C.ar    1  UNL1        0.0616
     12 C           8.2127   -5.6853   28.3773 C.ar    1  UNL1        0.1407
     13 F           8.0144   -5.4765   26.9052 F       1  UNL1       -0.2043
     14 C           9.1058   -6.8833   28.5083 C.ar    1  UNL1        0.0319
     15 C           9.5092   -7.3730   29.8675 C.ar    1  UNL1        0.0351
     16 C           9.0196   -6.6646   31.0957 C.ar    1  UNL1        0.1737
     17 F           9.4230   -7.1543   32.4549 F       1  UNL1       -0.2010
     18 C           8.1265   -5.4666   30.9647 C.ar    1  UNL1        0.1654
     19 O           7.6369   -4.7582   32.1929 O.3     1  UNL1       -0.4733
     20 C           6.7439   -3.5602   32.0619 C.3     1  UNL1        0.2075
     21 C           6.3404   -3.0705   30.7026 C.3     1  UNL1        0.0732
     22 C           4.5544   -0.6744   30.4406 C.3     1  UNL1        0.1538
     23 O           4.0647    0.0339   31.6688 O.3     1  UNL1       -0.2940
     24 S           7.3197   -4.4872   28.2462 S.O2    1  UNL1        0.0093
     25 O           8.0283   -4.2751   27.9492 O.2     1  UNL1       -0.1684
     26 O           6.2253   -5.4629   27.9294 O.2     1  UNL1       -0.1684
     27 C           7.8093   -5.1956   27.0180 C.ar    1  UNL1        0.1059
     28 C           9.0416   -4.7107   26.3136 C.ar    1  UNL1        0.0192
     29 C           9.5312   -5.4190   25.0854 C.ar    1  UNL1        0.0127
     30 C           8.7885   -6.6124   24.5616 C.ar    1  UNL1        0.0578
     31 CL          9.2781   -7.3207   23.3334 Cl      1  UNL1       -0.0822
     32 C           7.5562   -7.0974   25.2660 C.ar    1  UNL1        0.0127
     33 C           7.0665   -6.3890   26.4942 C.ar    1  UNL1        0.0192
@<TRIPOS>BOND
     1     1     2    1
     2     2     3    2
     3     2     4    1
     4     4     5    1
     5     5     6    1
     6     6     7    1
     7     7     8    1
     8     8     9    1
     9     9    10    1
    10    10    24    1
    11    24    25    2
    12    24    26    2
    13    24    27    1
    14    27    28   ar
    15    28    29   ar
    16    29    30   ar
    17    30    31    1
    18    30    32   ar
    19    32    33   ar
    20    10    11    1
    21    11    12   ar
    22    12    13    1
    23    12    14   ar
    24    14    15   ar
    25    15    16   ar
    26    16    17    1
    27    16    18   ar
    28    18    19    1
    29    19    20    1
    30    21    20    1
    31     6    22    1
    32    22    23    1
    33    23     2    1
    34    21     6    1
    35    21    10    1
    36    33    27   ar
    37    18    11   ar
@<TRIPOS>MOLECULE
*****
 33 37 0 0 0
SMALL
GASTEIGER

@<TRIPOS>ATOM
      1 C          -8.8440   -6.9430   18.6138 C.3     1  UNL1        0.1287
      2 P         -10.2826   -6.5578   18.7936 P.3     1  UNL1        0.3439
      3 O         -10.3995   -8.0506   18.8826 O.2     1  UNL1       -0.2577
      4 O         -11.7617   -6.6911   19.0043 O.3     1  UNL1       -0.2940
      5 C         -12.6242   -5.4653   19.0635 C.3     1  UNL1        0.1538
      6 C         -12.0077   -4.1063   18.9121 C.3     1  UNL1        0.0611
      7 C         -11.3912   -2.7473   18.7607 C.3     1  UNL1        0.0051
      8 C         -12.2538   -1.5216   18.8199 C.3     1  UNL1        0.0022
      9 C         -13.7329   -1.6548   19.0306 C.3     1  UNL1        0.0268
     10 C         -14.3494   -3.0138   19.1821 C.3     1  UNL1        0.1420
     11 C         -15.8286   -3.1471   19.3928 C.ar    1  UNL1        0.0616
     12 C         -16.6912   -1.9214   19.4520 C.ar    1  UNL1        0.1407
     13 F         -16.4200   -0.4501   19.3428 F       1  UNL1       -0.2043
     14 C         -18.1703   -2.0546   19.6627 C.ar    1  UNL1        0.0319
     15 C         -18.7869   -3.4137   19.8142 C.ar    1  UNL1        0.0351
     16 C         -17.9243   -4.6394   19.7549 C.ar    1  UNL1        0.1737
     17 F         -18.5408   -5.9984   19.9063 F       1  UNL1       -0.2010
     18 C         -16.4451   -4.5061   19.5442 C.ar    1  UNL1        0.1654
     19 O         -15.5825   -5.7319   19.4849 O.3     1  UNL1       -0.4733
     20 C         -14.1034   -5.5986   19.2742 C.3     1  UNL1        0.2075
     21 C         -13.4868   -4.2396   19.1228 C.3     1  UNL1        0.0732
     22 C         -10.5286   -3.9731   18.7014 C.3     1  UNL1        0.1538
     23 O          -9.6660   -5.1988   18.6422 O.3     1  UNL1       -0.2940
     24 S         -15.2120   -1.7881   19.2413 S.O2    1  UNL1        0.0093
     25 O         -15.2876   -1.4172   19.9429 O.2     1  UNL1       -0.1684
     26 O         -15.7093   -1.6259   17.8355 O.2     1  UNL1       -0.1684
     27 C         -16.0745   -0.5623   19.3006 C.ar    1  UNL1        0.1059
     28 C         -16.6220    0.0313   18.0366 C.ar    1  UNL1        0.0192
     29 C         -17.4846    1.2571   18.0958 C.ar    1  UNL1        0.0127
     30 C         -17.7997    1.8892   19.4191 C.ar    1  UNL1        0.0578
     31 CL        -18.6623    3.1149   19.4784 Cl      1  UNL1       -0.0822
     32 C         -17.2522    1.2955   20.6832 C.ar    1  UNL1        0.0127
     33 C         -16.3896    0.0697   20.6240 C.ar    1  UNL1        0.0192
@<TRIPOS>BOND
     1     1     2    1
     2     2     3    2
     3     2     4    1
     4     4     5    1
     5     5     6    1
     6     6     7    1
     7     7     8    1
     8     8     9    1
     9     9    10    1
    10    10    24    1
    11    24    25    2
    12    24    26    2
    13    24    27    1
    14    27    28   ar
    15    28    29   ar
    16    29    30   ar
    17    30    31    1
    18    30    32   ar
    19    32    33   ar
    20    10    11    1
    21    11    12   ar
    22    12    13    1
    23    12    14   ar
    24    14    15   ar
    25    15    16   ar
    26    16    17    1
    27    16    18   ar
    28    18    19    1
    29    19    20    1
    30    21    20    1
    31     6    22    1
    32    22    23    1
    33    23     2    1
    34    21     6    1
    35    21    10    1
    36    33    27   ar
    37    18    11   ar
