@<TRIPOS>MOLECULE
*****
 38 42 0 0 0
SMALL
GASTEIGER

@<TRIPOS>ATOM
      1 C          -0.4109    3.4500   22.0157 C.3     1  UNL1        0.1631
      2 N          -1.8709    3.4855   22.3577 N.ar    1  UNL1       -0.3047
      3 C          -2.4533    3.4748   23.7400 C.ar    1  UNL1        0.1441
      4 N          -3.9472    3.5206   23.6139 N.ar    1  UNL1       -0.2267
      5 C          -4.2883    3.5597   22.1537 C.ar    1  UNL1        0.1010
      6 C          -5.6015    3.6122   21.4307 C.ar    1  UNL1        0.0526
      7 C          -5.6314    3.6430   19.9314 C.ar    1  UNL1        0.1690
      8 F          -6.9447    3.6955   19.2084 F       1  UNL1       -0.2017
      9 C          -4.3482    3.6213   19.1550 C.ar    1  UNL1        0.1689
     10 F          -4.3782    3.6522   17.6555 F       1  UNL1       -0.2017
     11 C          -3.0350    3.5688   19.8779 C.ar    1  UNL1        0.0507
     12 C          -3.0050    3.5380   21.3773 C.ar    1  UNL1        0.0816
     13 C          -1.6778    3.4267   25.0230 C.ar    1  UNL1        0.0342
     14 C          -0.9213    2.1863   25.3961 C.ar    1  UNL1        0.0039
     15 C          -0.1458    2.1382   26.6792 C.ar    1  UNL1        0.0115
     16 C          -0.1268    3.3304   27.5892 C.ar    1  UNL1        0.0577
     17 CL          0.6487    3.2823   28.8723 Cl      1  UNL1       -0.0822
     18 C          -0.8833    4.5707   27.2162 C.ar    1  UNL1        0.0115
     19 C          -1.6588    4.6189   25.9331 C.ar    1  UNL1        0.0039
     20 C           0.4585    4.6352   22.3147 C.3     1  UNL1        0.0297
     21 C           1.2622    4.6755   23.5807 C.3     1  UNL1        0.0024
     22 C           2.1316    5.8607   23.8797 C.3     1  UNL1        0.0001
     23 C           2.1974    7.0056   22.9128 C.3     1  UNL1        0.0000
     24 C           1.3938    6.9652   21.6469 C.3     1  UNL1        0.0001
     25 C           0.5244    5.7801   21.3478 C.3     1  UNL1        0.0024
     26 N           1.6685    2.0934   21.2501 N.am    1  UNL1       -0.2824
     27 C           0.1799    2.2292   21.3747 C.2     1  UNL1        0.2468
     28 O          -0.4009    0.9870   20.7667 O.2     1  UNL1       -0.2727
     29 H           2.2579    2.8054   21.5891 H       1  UNL1        0.1549
     30 C           3.4404   -1.5690   19.3273 C.ar    1  UNL1        0.0141
     31 C           3.1835   -1.5476   20.8050 C.ar    1  UNL1        0.0024
     32 C           2.5929   -0.3267   21.4459 C.ar    1  UNL1        0.0147
     33 C           2.2591    0.8727   20.6092 C.ar    1  UNL1        0.0503
     34 C           2.5160    0.8512   19.1315 C.ar    1  UNL1        0.0147
     35 C           3.1067   -0.3696   18.4906 C.ar    1  UNL1        0.0024
     36 O           3.4339   -4.1398   18.9521 O.co2   1  UNL1       -0.5446
     37 C           4.0311   -2.7898   18.6863 C.2     1  UNL1        0.0729
     38 O           5.2189   -2.6604   17.7796 O.co2   1  UNL1       -0.5446
@<TRIPOS>UNITY_ATOM_ATTR
36 1
charge -1
@<TRIPOS>BOND
     1    36    37   ar
     2    37    38   ar
     3    37    30    1
     4    30    31   ar
     5    31    32   ar
     6    32    33   ar
     7    33    26    1
     8    26    27   am
     9    27    28    2
    10    27     1    1
    11     1    20    1
    12    20    21    1
    13    21    22    1
    14    22    23    1
    15    23    24    1
    16    24    25    1
    17     1     2    1
    18     2     3   ar
    19     3    13    1
    20    13    14   ar
    21    14    15   ar
    22    15    16   ar
    23    16    17    1
    24    16    18   ar
    25    18    19   ar
    26     3     4   ar
    27     4     5   ar
    28     5     6   ar
    29     6     7   ar
    30     7     8    1
    31     7     9   ar
    32     9    10    1
    33     9    11   ar
    34    11    12   ar
    35    33    34   ar
    36    34    35   ar
    37    35    30   ar
    38    25    20    1
    39    12     2   ar
    40    19    13   ar
    41    12     5   ar
    42    26    29    1
@<TRIPOS>MOLECULE
*****
 38 42 0 0 0
SMALL
GASTEIGER

@<TRIPOS>ATOM
      1 C          -0.4124    2.7212   20.5134 C.3     1  UNL1        0.1631
      2 N          -1.4203    3.0995   21.5579 N.ar    1  UNL1       -0.3047
      3 C          -1.1594    3.2276   23.0295 C.ar    1  UNL1        0.1441
      4 N          -2.4440    3.6234   23.6952 N.ar    1  UNL1       -0.2267
      5 C          -3.4988    3.7399   22.6351 C.ar    1  UNL1        0.1010
      6 C          -4.9536    4.0990   22.7020 C.ar    1  UNL1        0.0526
      7 C          -5.7758    4.1343   21.4479 C.ar    1  UNL1        0.1690
      8 F          -7.2307    4.4934   21.5147 F       1  UNL1       -0.2017
      9 C          -5.1431    3.8105   20.1270 C.ar    1  UNL1        0.1689
     10 F          -5.9653    3.8458   18.8728 F       1  UNL1       -0.2017
     11 C          -3.6883    3.4514   20.0601 C.ar    1  UNL1        0.0507
     12 C          -2.8661    3.4161   21.3142 C.ar    1  UNL1        0.0816
     13 C           0.1552    2.9999   23.7150 C.ar    1  UNL1        0.0342
     14 C           0.4148    1.7064   24.4286 C.ar    1  UNL1        0.0039
     15 C           1.7295    1.4787   25.1141 C.ar    1  UNL1        0.0115
     16 C           2.7845    2.5445   25.0859 C.ar    1  UNL1        0.0577
     17 CL          4.0992    2.3168   25.7714 Cl      1  UNL1       -0.0822
     18 C           2.5249    3.8380   24.3722 C.ar    1  UNL1        0.0115
     19 C           1.2103    4.0657   23.6868 C.ar    1  UNL1        0.0039
     20 C          -0.1038    3.6676   19.3914 C.3     1  UNL1        0.0297
     21 C          -0.6336    3.3966   18.0144 C.3     1  UNL1        0.0024
     22 C          -0.3250    4.3429   16.8923 C.3     1  UNL1        0.0001
     23 C           0.5135    5.5603   17.1471 C.3     1  UNL1        0.0000
     24 C           1.0433    5.8313   18.5239 C.3     1  UNL1        0.0001
     25 C           0.7347    4.8850   19.6461 C.3     1  UNL1        0.0024
     26 N           1.7848    1.3414   20.6498 N.am    1  UNL1       -0.2824
     27 C           0.2870    1.3964   20.5910 C.2     1  UNL1        0.2468
     28 O          -0.1808   -0.0283   20.6284 O.2     1  UNL1       -0.2727
     29 H           2.3089    2.1747   20.6374 H       1  UNL1        0.1549
     30 C           3.8827   -2.6329   20.8827 C.ar    1  UNL1        0.0141
     31 C           3.6158   -1.8512   22.1348 C.ar    1  UNL1        0.0024
     32 C           2.9164   -0.5264   22.0571 C.ar    1  UNL1        0.0147
     33 C           2.4841    0.0167   20.7273 C.ar    1  UNL1        0.0503
     34 C           2.7511   -0.7650   19.4753 C.ar    1  UNL1        0.0147
     35 C           3.4504   -2.0898   19.5530 C.ar    1  UNL1        0.0024
     36 O           5.8193   -4.1049   21.7953 O.co2   1  UNL1       -0.5446
     37 C           4.5820   -3.9576   20.9603 C.2     1  UNL1        0.0729
     38 O           4.0439   -5.1352   20.2028 O.co2   1  UNL1       -0.5446
@<TRIPOS>UNITY_ATOM_ATTR
36 1
charge -1
@<TRIPOS>BOND
     1    36    37   ar
     2    37    38   ar
     3    37    30    1
     4    30    31   ar
     5    31    32   ar
     6    32    33   ar
     7    33    26    1
     8    26    27   am
     9    27    28    2
    10    27     1    1
    11     1    20    1
    12    20    21    1
    13    21    22    1
    14    22    23    1
    15    23    24    1
    16    24    25    1
    17     1     2    1
    18     2     3   ar
    19     3    13    1
    20    13    14   ar
    21    14    15   ar
    22    15    16   ar
    23    16    17    1
    24    16    18   ar
    25    18    19   ar
    26     3     4   ar
    27     4     5   ar
    28     5     6   ar
    29     6     7   ar
    30     7     8    1
    31     7     9   ar
    32     9    10    1
    33     9    11   ar
    34    11    12   ar
    35    33    34   ar
    36    34    35   ar
    37    35    30   ar
    38    25    20    1
    39    12     2   ar
    40    19    13   ar
    41    12     5   ar
    42    26    29    1
@<TRIPOS>MOLECULE
*****
 38 42 0 0 0
SMALL
GASTEIGER

@<TRIPOS>ATOM
      1 C          -0.4411    2.9490   20.4215 C.3     1  UNL1        0.1631
      2 N          -1.3463    3.3397   21.5520 N.ar    1  UNL1       -0.3047
      3 C          -2.6575    4.0570   21.4242 C.ar    1  UNL1        0.1441
      4 N          -3.2207    4.2423   22.8020 N.ar    1  UNL1       -0.2267
      5 C          -2.2576    3.6395   23.7814 C.ar    1  UNL1        0.1010
      6 C          -2.2859    3.5265   25.2768 C.ar    1  UNL1        0.0526
      7 C          -1.1557    2.8557   25.9997 C.ar    1  UNL1        0.1690
      8 F          -1.1839    2.7426   27.4952 F       1  UNL1       -0.2017
      9 C           0.0027    2.2978   25.2272 C.ar    1  UNL1        0.1689
     10 F           1.1330    1.6270   25.9502 F       1  UNL1       -0.2017
     11 C           0.0310    2.4108   23.7317 C.ar    1  UNL1        0.0507
     12 C          -1.0992    3.0817   23.0088 C.ar    1  UNL1        0.0816
     13 C          -3.2937    4.5096   20.1434 C.ar    1  UNL1        0.0342
     14 C          -4.1089    3.5482   19.3303 C.ar    1  UNL1        0.0039
     15 C          -4.7451    4.0008   18.0495 C.ar    1  UNL1        0.0115
     16 C          -4.5661    5.4147   17.5818 C.ar    1  UNL1        0.0577
     17 CL         -5.2023    5.8672   16.3010 Cl      1  UNL1       -0.0822
     18 C          -3.7509    6.3760   18.3949 C.ar    1  UNL1        0.0115
     19 C          -3.1147    5.9235   19.6757 C.ar    1  UNL1        0.0039
     20 C          -0.2329    3.8863   19.2691 C.3     1  UNL1        0.0297
     21 C          -0.7137    3.5090   17.8992 C.3     1  UNL1        0.0024
     22 C          -0.5055    4.4463   16.7467 C.3     1  UNL1        0.0001
     23 C           0.1835    5.7609   16.9642 C.3     1  UNL1        0.0000
     24 C           0.6642    6.1381   18.3340 C.3     1  UNL1        0.0001
     25 C           0.4560    5.2008   19.4865 C.3     1  UNL1        0.0024
     26 N           1.7525    1.5579   20.3641 N.am    1  UNL1       -0.2824
     27 C           0.2559    1.6209   20.4434 C.2     1  UNL1        0.2468
     28 O          -0.2135    0.1991   20.5336 O.2     1  UNL1       -0.2727
     29 H           2.2773    2.3882   20.2976 H       1  UNL1        0.1549
     30 C           3.8432   -2.4264   20.4300 C.ar    1  UNL1        0.0141
     31 C           3.4934   -1.7416   21.7178 C.ar    1  UNL1        0.0024
     32 C           2.7964   -0.4134   21.6959 C.ar    1  UNL1        0.0147
     33 C           2.4494    0.2298   20.3860 C.ar    1  UNL1        0.0503
     34 C           2.7992   -0.4550   19.0981 C.ar    1  UNL1        0.0147
     35 C           3.4961   -1.7831   19.1201 C.ar    1  UNL1        0.0024
     36 O           4.6668   -4.5559   19.1903 O.co2   1  UNL1       -0.5446
     37 C           4.5401   -3.7545   20.4519 C.2     1  UNL1        0.0729
     38 O           5.1103   -4.2811   21.7355 O.co2   1  UNL1       -0.5446
@<TRIPOS>UNITY_ATOM_ATTR
36 1
charge -1
@<TRIPOS>BOND
     1    36    37   ar
     2    37    38   ar
     3    37    30    1
     4    30    31   ar
     5    31    32   ar
     6    32    33   ar
     7    33    26    1
     8    26    27   am
     9    27    28    2
    10    27     1    1
    11     1    20    1
    12    20    21    1
    13    21    22    1
    14    22    23    1
    15    23    24    1
    16    24    25    1
    17     1     2    1
    18     2     3   ar
    19     3    13    1
    20    13    14   ar
    21    14    15   ar
    22    15    16   ar
    23    16    17    1
    24    16    18   ar
    25    18    19   ar
    26     3     4   ar
    27     4     5   ar
    28     5     6   ar
    29     6     7   ar
    30     7     8    1
    31     7     9   ar
    32     9    10    1
    33     9    11   ar
    34    11    12   ar
    35    33    34   ar
    36    34    35   ar
    37    35    30   ar
    38    25    20    1
    39    12     2   ar
    40    19    13   ar
    41    12     5   ar
    42    26    29    1
@<TRIPOS>MOLECULE
*****
 38 42 0 0 0
SMALL
GASTEIGER

@<TRIPOS>ATOM
      1 C           5.6991   -1.5572   29.0187 C.3     1  UNL1        0.1631
      2 N           6.2192   -2.8756   29.5101 N.ar    1  UNL1       -0.3047
      3 C           6.3762   -3.2818   30.9455 C.ar    1  UNL1        0.1441
      4 N           6.9277   -4.6764   30.9748 N.ar    1  UNL1       -0.2267
      5 C           7.1116   -5.1321   29.5576 C.ar    1  UNL1        0.1010
      6 C           7.6211   -6.4167   28.9745 C.ar    1  UNL1        0.0526
      7 C           7.6928   -6.5883   27.4861 C.ar    1  UNL1        0.1690
      8 F           8.2024   -7.8730   26.9029 F       1  UNL1       -0.2017
      9 C           7.2550   -5.4754   26.5808 C.ar    1  UNL1        0.1689
     10 F           7.3267   -5.6470   25.0924 F       1  UNL1       -0.2017
     11 C           6.7454   -4.1907   27.1639 C.ar    1  UNL1        0.0507
     12 C           6.6737   -4.0191   28.6523 C.ar    1  UNL1        0.0816
     13 C           6.0406   -2.4410   32.1415 C.ar    1  UNL1        0.0342
     14 C           7.1038   -1.6100   32.7963 C.ar    1  UNL1        0.0039
     15 C           6.7682   -0.7692   33.9923 C.ar    1  UNL1        0.0115
     16 C           5.3693   -0.7594   34.5335 C.ar    1  UNL1        0.0577
     17 CL          5.0337    0.0813   35.7295 Cl      1  UNL1       -0.0822
     18 C           4.3061   -1.5905   33.8787 C.ar    1  UNL1        0.0115
     19 C           4.6417   -2.4312   32.6827 C.ar    1  UNL1        0.0039
     20 C           5.9782   -0.3044   29.7948 C.3     1  UNL1        0.0297
     21 C           7.3726    0.2452   29.8557 C.3     1  UNL1        0.0024
     22 C           7.6517    1.4981   30.6318 C.3     1  UNL1        0.0001
     23 C           6.5364    2.2013   31.3471 C.3     1  UNL1        0.0000
     24 C           5.1421    1.6517   31.2863 C.3     1  UNL1        0.0001
     25 C           4.8629    0.3989   30.5101 C.3     1  UNL1        0.0024
     26 N           5.5364   -0.9923   26.4879 N.am    1  UNL1       -0.2824
     27 C           4.8998   -1.4917   27.7510 C.2     1  UNL1        0.2468
     28 O           3.4839   -1.8339   27.3930 O.2     1  UNL1       -0.2727
     29 H           6.4788   -0.7075   26.4909 H       1  UNL1        0.1549
     30 C           3.1384   -0.7957   22.6851 C.ar    1  UNL1        0.0141
     31 C           3.0990    0.3465   23.6565 C.ar    1  UNL1        0.0024
     32 C           3.8984    0.2810   24.9242 C.ar    1  UNL1        0.0147
     33 C           4.7371   -0.9268   25.2203 C.ar    1  UNL1        0.0503
     34 C           4.7765   -2.0691   24.2489 C.ar    1  UNL1        0.0147
     35 C           3.9772   -2.0035   22.9814 C.ar    1  UNL1        0.0024
     36 O           2.6769   -1.6356   20.2702 O.co2   1  UNL1       -0.5446
     37 C           2.3391   -0.7303   21.4175 C.2     1  UNL1        0.0729
     38 O           1.2020    0.2406   21.2973 O.co2   1  UNL1       -0.5446
@<TRIPOS>UNITY_ATOM_ATTR
36 1
charge -1
@<TRIPOS>BOND
     1    36    37   ar
     2    37    38   ar
     3    37    30    1
     4    30    31   ar
     5    31    32   ar
     6    32    33   ar
     7    33    26    1
     8    26    27   am
     9    27    28    2
    10    27     1    1
    11     1    20    1
    12    20    21    1
    13    21    22    1
    14    22    23    1
    15    23    24    1
    16    24    25    1
    17     1     2    1
    18     2     3   ar
    19     3    13    1
    20    13    14   ar
    21    14    15   ar
    22    15    16   ar
    23    16    17    1
    24    16    18   ar
    25    18    19   ar
    26     3     4   ar
    27     4     5   ar
    28     5     6   ar
    29     6     7   ar
    30     7     8    1
    31     7     9   ar
    32     9    10    1
    33     9    11   ar
    34    11    12   ar
    35    33    34   ar
    36    34    35   ar
    37    35    30   ar
    38    25    20    1
    39    12     2   ar
    40    19    13   ar
    41    12     5   ar
    42    26    29    1
@<TRIPOS>MOLECULE
*****
 38 42 0 0 0
SMALL
GASTEIGER

@<TRIPOS>ATOM
      1 C           0.5687    2.9739   21.4907 C.3     1  UNL1        0.1631
      2 N           0.7879    2.0648   22.6635 N.ar    1  UNL1       -0.3047
      3 C           1.6792    0.8586   22.6895 C.ar    1  UNL1        0.1441
      4 N           1.5964    0.2506   24.0582 N.ar    1  UNL1       -0.2267
      5 C           0.6539    1.0810   24.8781 C.ar    1  UNL1        0.1010
      6 C           0.1862    0.9610   26.2982 C.ar    1  UNL1        0.0526
      7 C          -0.7812    1.9623   26.8563 C.ar    1  UNL1        0.1690
      8 F          -1.2490    1.8424   28.2765 F       1  UNL1       -0.2017
      9 C          -1.2808    3.0836   25.9943 C.ar    1  UNL1        0.1689
     10 F          -2.2483    4.0849   26.5525 F       1  UNL1       -0.2017
     11 C          -0.8131    3.2035   24.5742 C.ar    1  UNL1        0.0507
     12 C           0.1543    2.2022   24.0161 C.ar    1  UNL1        0.0816
     13 C           2.5078    0.3497   21.5473 C.ar    1  UNL1        0.0342
     14 C           3.9600    0.7132   21.4540 C.ar    1  UNL1        0.0039
     15 C           4.7886    0.2043   20.3118 C.ar    1  UNL1        0.0115
     16 C           4.1649   -0.6680   19.2630 C.ar    1  UNL1        0.0577
     17 CL          4.9935   -1.1768   18.1208 Cl      1  UNL1       -0.0822
     18 C           2.7127   -1.0315   19.3564 C.ar    1  UNL1        0.0115
     19 C           1.8841   -0.5226   20.4985 C.ar    1  UNL1        0.0039
     20 C           1.7092    3.3040   20.5741 C.3     1  UNL1        0.0297
     21 C           2.8742    4.1003   21.0829 C.3     1  UNL1        0.0024
     22 C           4.0147    4.4304   20.1664 C.3     1  UNL1        0.0001
     23 C           3.9903    3.9642   18.7408 C.3     1  UNL1        0.0000
     24 C           2.8255    3.1679   18.2320 C.3     1  UNL1        0.0001
     25 C           1.6849    2.8378   19.1486 C.3     1  UNL1        0.0024
     26 N          -1.9001    2.6728   20.7393 N.am    1  UNL1       -0.2824
     27 C          -0.7911    3.5531   21.2345 C.2     1  UNL1        0.2468
     28 O          -1.3794    4.9271   21.3615 O.2     1  UNL1       -0.2727
     29 H          -1.7355    1.7149   20.5824 H       1  UNL1        0.1549
     30 C          -5.9794    4.4104   19.9710 C.ar    1  UNL1        0.0141
     31 C          -5.6641    3.7972   21.3032 C.ar    1  UNL1        0.0024
     32 C          -4.3043    3.2180   21.5592 C.ar    1  UNL1        0.0147
     33 C          -3.2598    3.2520   20.4831 C.ar    1  UNL1        0.0503
     34 C          -3.5751    3.8651   19.1510 C.ar    1  UNL1        0.0147
     35 C          -4.9349    4.4443   18.8949 C.ar    1  UNL1        0.0024
     36 O          -8.0420    4.7092   18.4198 O.co2   1  UNL1       -0.5446
     37 C          -7.3391    4.9896   19.7149 C.2     1  UNL1        0.0729
     38 O          -7.9960    5.8492   20.7539 O.co2   1  UNL1       -0.5446
@<TRIPOS>UNITY_ATOM_ATTR
36 1
charge -1
@<TRIPOS>BOND
     1    36    37   ar
     2    37    38   ar
     3    37    30    1
     4    30    31   ar
     5    31    32   ar
     6    32    33   ar
     7    33    26    1
     8    26    27   am
     9    27    28    2
    10    27     1    1
    11     1    20    1
    12    20    21    1
    13    21    22    1
    14    22    23    1
    15    23    24    1
    16    24    25    1
    17     1     2    1
    18     2     3   ar
    19     3    13    1
    20    13    14   ar
    21    14    15   ar
    22    15    16   ar
    23    16    17    1
    24    16    18   ar
    25    18    19   ar
    26     3     4   ar
    27     4     5   ar
    28     5     6   ar
    29     6     7   ar
    30     7     8    1
    31     7     9   ar
    32     9    10    1
    33     9    11   ar
    34    11    12   ar
    35    33    34   ar
    36    34    35   ar
    37    35    30   ar
    38    25    20    1
    39    12     2   ar
    40    19    13   ar
    41    12     5   ar
    42    26    29    1
@<TRIPOS>MOLECULE
*****
 38 42 0 0 0
SMALL
GASTEIGER

@<TRIPOS>ATOM
      1 C           1.9488    1.3677   21.6118 C.3     1  UNL1        0.1631
      2 N           1.1781    2.0418   20.5155 N.ar    1  UNL1       -0.3047
      3 C           1.6271    2.2046   19.0936 C.ar    1  UNL1        0.1441
      4 N           0.5496    2.9348   18.3481 N.ar    1  UNL1       -0.2267
      5 C          -0.5652    3.2234   19.3093 C.ar    1  UNL1        0.1010
      6 C          -1.8839    3.9174   19.1378 C.ar    1  UNL1        0.0526
      7 C          -2.8141    4.0596   20.3059 C.ar    1  UNL1        0.1690
      8 F          -4.1328    4.7536   20.1345 F       1  UNL1       -0.2017
      9 C          -2.4256    3.5076   21.6455 C.ar    1  UNL1        0.1689
     10 F          -3.3559    3.6498   22.8136 F       1  UNL1       -0.2017
     11 C          -1.1070    2.8136   21.8170 C.ar    1  UNL1        0.0507
     12 C          -0.1768    2.6715   20.6489 C.ar    1  UNL1        0.0816
     13 C           2.9255    1.7218   18.5182 C.ar    1  UNL1        0.0342
     14 C           4.1486    2.5864   18.5976 C.ar    1  UNL1        0.0039
     15 C           5.4470    2.1037   18.0222 C.ar    1  UNL1        0.0115
     16 C           5.5223    0.7563   17.3674 C.ar    1  UNL1        0.0577
     17 CL          6.8207    0.2735   16.7919 Cl      1  UNL1       -0.0822
     18 C           4.2991   -0.1084   17.2880 C.ar    1  UNL1        0.0115
     19 C           3.0007    0.3744   17.8634 C.ar    1  UNL1        0.0039
     20 C           2.9245    0.2774   21.2817 C.3     1  UNL1        0.0297
     21 C           2.4264   -1.0621   20.8257 C.3     1  UNL1        0.0024
     22 C           3.4021   -2.1525   20.4956 C.3     1  UNL1        0.0001
     23 C           4.8759   -1.9035   20.6215 C.3     1  UNL1        0.0000
     24 C           5.3740   -0.5641   21.0774 C.3     1  UNL1        0.0001
     25 C           4.3983    0.5263   21.4075 C.3     1  UNL1        0.0024
     26 N           1.3200    0.7722   24.0613 N.am    1  UNL1       -0.2824
     27 C           1.7437    1.7840   23.0383 C.2     1  UNL1        0.2468
     28 O           1.8679    3.0865   23.7718 O.2     1  UNL1       -0.2727
     29 H           1.1765   -0.1651   23.7966 H       1  UNL1        0.1549
     30 C           0.7049    2.0213   28.3406 C.ar    1  UNL1        0.0141
     31 C           2.0648    1.5964   27.8713 C.ar    1  UNL1        0.0024
     32 C           2.2698    1.1801   26.4448 C.ar    1  UNL1        0.0147
     33 C           1.1149    1.1886   25.4877 C.ar    1  UNL1        0.0503
     34 C          -0.2450    1.6134   25.9569 C.ar    1  UNL1        0.0147
     35 C          -0.4499    2.0298   27.3833 C.ar    1  UNL1        0.0024
     36 O           0.6807    3.8732   30.1626 O.co2   1  UNL1       -0.5446
     37 C           0.4999    2.4377   29.7669 C.2     1  UNL1        0.0729
     38 O           0.1140    1.4184   30.7976 O.co2   1  UNL1       -0.5446
@<TRIPOS>UNITY_ATOM_ATTR
36 1
charge -1
@<TRIPOS>BOND
     1    36    37   ar
     2    37    38   ar
     3    37    30    1
     4    30    31   ar
     5    31    32   ar
     6    32    33   ar
     7    33    26    1
     8    26    27   am
     9    27    28    2
    10    27     1    1
    11     1    20    1
    12    20    21    1
    13    21    22    1
    14    22    23    1
    15    23    24    1
    16    24    25    1
    17     1     2    1
    18     2     3   ar
    19     3    13    1
    20    13    14   ar
    21    14    15   ar
    22    15    16   ar
    23    16    17    1
    24    16    18   ar
    25    18    19   ar
    26     3     4   ar
    27     4     5   ar
    28     5     6   ar
    29     6     7   ar
    30     7     8    1
    31     7     9   ar
    32     9    10    1
    33     9    11   ar
    34    11    12   ar
    35    33    34   ar
    36    34    35   ar
    37    35    30   ar
    38    25    20    1
    39    12     2   ar
    40    19    13   ar
    41    12     5   ar
    42    26    29    1
@<TRIPOS>MOLECULE
*****
 38 42 0 0 0
SMALL
GASTEIGER

@<TRIPOS>ATOM
      1 C           1.7775    2.1528   21.0568 C.3     1  UNL1        0.1631
      2 N           2.4054    0.8150   21.3139 N.ar    1  UNL1       -0.3047
      3 C           2.5355    0.1441   22.6492 C.ar    1  UNL1        0.1441
      4 N           3.2239   -1.1723   22.4413 N.ar    1  UNL1       -0.2267
      5 C           3.5194   -1.3149   20.9776 C.ar    1  UNL1        0.1010
      6 C           4.1836   -2.4045   20.1893 C.ar    1  UNL1        0.0526
      7 C           4.3420   -2.2659   18.7042 C.ar    1  UNL1        0.1690
      8 F           5.0063   -3.3555   17.9158 F       1  UNL1       -0.2017
      9 C           3.8362   -1.0376   18.0074 C.ar    1  UNL1        0.1689
     10 F           3.9946   -0.8990   16.5222 F       1  UNL1       -0.2017
     11 C           3.1719    0.0519   18.7957 C.ar    1  UNL1        0.0507
     12 C           3.0135   -0.0867   20.2808 C.ar    1  UNL1        0.0816
     13 C           2.0605    0.6931   23.9618 C.ar    1  UNL1        0.0342
     14 C           3.0508    1.0254   25.0382 C.ar    1  UNL1        0.0039
     15 C           2.5758    1.5744   26.3508 C.ar    1  UNL1        0.0115
     16 C           1.1105    1.7912   26.5870 C.ar    1  UNL1        0.0577
     17 CL          0.6355    2.3403   27.8996 Cl      1  UNL1       -0.0822
     18 C           0.1202    1.4590   25.5105 C.ar    1  UNL1        0.0115
     19 C           0.5952    0.9100   24.1979 C.ar    1  UNL1        0.0039
     20 C           2.6257    3.3899   21.0464 C.3     1  UNL1        0.0297
     21 C           2.9672    4.0760   22.3359 C.3     1  UNL1        0.0024
     22 C           3.8153    5.3131   22.3256 C.3     1  UNL1        0.0001
     23 C           4.3221    5.8642   21.0257 C.3     1  UNL1        0.0000
     24 C           3.9806    5.1781   19.7363 C.3     1  UNL1        0.0001
     25 C           3.1325    3.9410   19.7466 C.3     1  UNL1        0.0024
     26 N          -0.3723    3.5936   20.8276 N.am    1  UNL1       -0.2824
     27 C           0.3013    2.2535   20.8100 C.2     1  UNL1        0.2468
     28 O          -0.7776    1.2522   20.5215 O.2     1  UNL1       -0.2727
     29 H           0.1544    4.4071   21.0010 H       1  UNL1        0.1549
     30 C          -4.8008    3.8954   20.0874 C.ar    1  UNL1        0.0141
     31 C          -4.2871    3.6548   21.4760 C.ar    1  UNL1        0.0024
     32 C          -2.8109    3.5542   21.7227 C.ar    1  UNL1        0.0147
     33 C          -1.8484    3.6942   20.5808 C.ar    1  UNL1        0.0503
     34 C          -2.3621    3.9348   19.1922 C.ar    1  UNL1        0.0147
     35 C          -3.8382    4.0354   18.9455 C.ar    1  UNL1        0.0024
     36 O          -6.9098    3.1960   18.7409 O.co2   1  UNL1       -0.5446
     37 C          -6.2769    3.9960   19.8407 C.2     1  UNL1        0.0729
     38 O          -7.1202    4.8967   20.6938 O.co2   1  UNL1       -0.5446
@<TRIPOS>UNITY_ATOM_ATTR
36 1
charge -1
@<TRIPOS>BOND
     1    36    37   ar
     2    37    38   ar
     3    37    30    1
     4    30    31   ar
     5    31    32   ar
     6    32    33   ar
     7    33    26    1
     8    26    27   am
     9    27    28    2
    10    27     1    1
    11     1    20    1
    12    20    21    1
    13    21    22    1
    14    22    23    1
    15    23    24    1
    16    24    25    1
    17     1     2    1
    18     2     3   ar
    19     3    13    1
    20    13    14   ar
    21    14    15   ar
    22    15    16   ar
    23    16    17    1
    24    16    18   ar
    25    18    19   ar
    26     3     4   ar
    27     4     5   ar
    28     5     6   ar
    29     6     7   ar
    30     7     8    1
    31     7     9   ar
    32     9    10    1
    33     9    11   ar
    34    11    12   ar
    35    33    34   ar
    36    34    35   ar
    37    35    30   ar
    38    25    20    1
    39    12     2   ar
    40    19    13   ar
    41    12     5   ar
    42    26    29    1
@<TRIPOS>MOLECULE
*****
 38 42 0 0 0
SMALL
GASTEIGER

@<TRIPOS>ATOM
      1 C          -0.3613    2.6665   22.1086 C.3     1  UNL1        0.1631
      2 N          -1.1019    3.6984   21.3107 N.ar    1  UNL1       -0.3047
      3 C          -0.5074    4.6054   20.2744 C.ar    1  UNL1        0.1441
      4 N          -1.6051    5.4721   19.7324 N.ar    1  UNL1       -0.2267
      5 C          -2.8780    5.1008   20.4337 C.ar    1  UNL1        0.1010
      6 C          -4.2801    5.6192   20.3101 C.ar    1  UNL1        0.0526
      7 C          -5.3712    5.0415   21.1620 C.ar    1  UNL1        0.1690
      8 F          -6.7733    5.5599   21.0384 F       1  UNL1       -0.2017
      9 C          -5.0601    3.9453   22.1375 C.ar    1  UNL1        0.1689
     10 F          -6.1513    3.3675   22.9894 F       1  UNL1       -0.2017
     11 C          -3.6580    3.4268   22.2611 C.ar    1  UNL1        0.0507
     12 C          -2.5670    4.0046   21.4092 C.ar    1  UNL1        0.0816
     13 C           0.9321    4.6396   19.8539 C.ar    1  UNL1        0.0342
     14 C           1.3408    4.0630   18.5309 C.ar    1  UNL1        0.0039
     15 C           2.7803    4.0973   18.1104 C.ar    1  UNL1        0.0115
     16 C           3.8110    4.7081   19.0129 C.ar    1  UNL1        0.0577
     17 CL          5.2504    4.7423   18.5924 Cl      1  UNL1       -0.0822
     18 C           3.4022    5.2847   20.3359 C.ar    1  UNL1        0.0115
     19 C           1.9627    5.2504   20.7564 C.ar    1  UNL1        0.0039
     20 C          -0.3294    2.7564   23.6055 C.3     1  UNL1        0.0297
     21 C          -0.4788    4.0878   24.2802 C.3     1  UNL1        0.0024
     22 C          -0.4469    4.1778   25.7772 C.3     1  UNL1        0.0001
     23 C          -0.2657    2.9364   26.5995 C.3     1  UNL1        0.0000
     24 C          -0.1164    1.6051   25.9248 C.3     1  UNL1        0.0001
     25 C          -0.1482    1.5151   24.4278 C.3     1  UNL1        0.0024
     26 N           1.8458    1.5332   21.3373 N.am    1  UNL1       -0.2824
     27 C           0.3476    1.5444   21.4094 C.2     1  UNL1        0.2468
     28 O          -0.1101    0.3084   20.6933 O.2     1  UNL1       -0.2727
     29 H           2.3639    2.2622   21.7488 H       1  UNL1        0.1549
     30 C           3.9720   -1.8330   19.2400 C.ar    1  UNL1        0.0141
     31 C           3.5383   -1.9933   20.6669 C.ar    1  UNL1        0.0024
     32 C           2.8295   -0.8712   21.3661 C.ar    1  UNL1        0.0147
     33 C           2.5545    0.4112   20.6382 C.ar    1  UNL1        0.0503
     34 C           2.9882    0.5716   19.2112 C.ar    1  UNL1        0.0147
     35 C           3.6970   -0.5505   18.5122 C.ar    1  UNL1        0.0024
     36 O           4.2883   -4.3765   18.8152 O.co2   1  UNL1       -0.5446
     37 C           4.6807   -2.9549   18.5409 C.2     1  UNL1        0.0729
     38 O           5.7819   -2.6553   17.5674 O.co2   1  UNL1       -0.5446
@<TRIPOS>UNITY_ATOM_ATTR
36 1
charge -1
@<TRIPOS>BOND
     1    36    37   ar
     2    37    38   ar
     3    37    30    1
     4    30    31   ar
     5    31    32   ar
     6    32    33   ar
     7    33    26    1
     8    26    27   am
     9    27    28    2
    10    27     1    1
    11     1    20    1
    12    20    21    1
    13    21    22    1
    14    22    23    1
    15    23    24    1
    16    24    25    1
    17     1     2    1
    18     2     3   ar
    19     3    13    1
    20    13    14   ar
    21    14    15   ar
    22    15    16   ar
    23    16    17    1
    24    16    18   ar
    25    18    19   ar
    26     3     4   ar
    27     4     5   ar
    28     5     6   ar
    29     6     7   ar
    30     7     8    1
    31     7     9   ar
    32     9    10    1
    33     9    11   ar
    34    11    12   ar
    35    33    34   ar
    36    34    35   ar
    37    35    30   ar
    38    25    20    1
    39    12     2   ar
    40    19    13   ar
    41    12     5   ar
    42    26    29    1
@<TRIPOS>MOLECULE
*****
 38 42 0 0 0
SMALL
GASTEIGER

@<TRIPOS>ATOM
      1 C          -0.2677    2.6889   22.1271 C.3     1  UNL1        0.1631
      2 N          -0.6531    3.9188   21.3599 N.ar    1  UNL1       -0.3047
      3 C           0.1834    5.1528   21.1940 C.ar    1  UNL1        0.1441
      4 N          -0.5894    6.1272   20.3554 N.ar    1  UNL1       -0.2267
      5 C          -1.9034    5.4956   20.0030 C.ar    1  UNL1        0.1010
      6 C          -3.0692    5.9869   19.1970 C.ar    1  UNL1        0.0526
      7 C          -4.2744    5.1132   19.0119 C.ar    1  UNL1        0.1690
      8 F          -5.4402    5.6045   18.2059 F       1  UNL1       -0.2017
      9 C          -4.3138    3.7483   19.6328 C.ar    1  UNL1        0.1689
     10 F          -5.5190    2.8747   19.4476 F       1  UNL1       -0.2017
     11 C          -3.1480    3.2570   20.4387 C.ar    1  UNL1        0.0507
     12 C          -1.9429    4.1306   20.6238 C.ar    1  UNL1        0.0816
     13 C           1.5523    5.3735   21.7662 C.ar    1  UNL1        0.0342
     14 C           2.7442    5.4341   20.8575 C.ar    1  UNL1        0.0039
     15 C           4.1130    5.6549   21.4297 C.ar    1  UNL1        0.0115
     16 C           4.2900    5.8150   22.9106 C.ar    1  UNL1        0.0577
     17 CL          5.6589    6.0357   23.4828 Cl      1  UNL1       -0.0822
     18 C           3.0982    5.7543   23.8192 C.ar    1  UNL1        0.0115
     19 C           1.7293    5.5336   23.2470 C.ar    1  UNL1        0.0039
     20 C          -0.5613    2.5979   23.5952 C.3     1  UNL1        0.0297
     21 C           0.2449    1.6803   24.4660 C.3     1  UNL1        0.0024
     22 C          -0.0488    1.5893   25.9341 C.3     1  UNL1        0.0001
     23 C          -1.1487    2.4160   26.5316 C.3     1  UNL1        0.0000
     24 C          -1.9548    3.3335   25.6609 C.3     1  UNL1        0.0001
     25 C          -1.6612    3.4245   24.1928 C.3     1  UNL1        0.0024
     26 N           1.9091    1.4975   21.3574 N.am    1  UNL1       -0.2824
     27 C           0.4116    1.5498   21.4262 C.2     1  UNL1        0.2468
     28 O          -0.0783    0.3289   20.7054 O.2     1  UNL1       -0.2727
     29 H           2.4462    2.2107   21.7722 H       1  UNL1        0.1549
     30 C           3.9466   -1.9199   19.2548 C.ar    1  UNL1        0.0141
     31 C           3.5866   -2.0398   20.7060 C.ar    1  UNL1        0.0024
     32 C           2.9074   -0.9006   21.4069 C.ar    1  UNL1        0.0147
     33 C           2.5883    0.3584   20.6565 C.ar    1  UNL1        0.0503
     34 C           2.9483    0.4783   19.2053 C.ar    1  UNL1        0.0147
     35 C           3.6274   -0.6608   18.5045 C.ar    1  UNL1        0.0024
     36 O           4.1310   -4.4615   18.7487 O.co2   1  UNL1       -0.5446
     37 C           4.6257   -3.0589   18.5539 C.2     1  UNL1        0.0729
     38 O           5.7997   -2.7953   17.6581 O.co2   1  UNL1       -0.5446
@<TRIPOS>UNITY_ATOM_ATTR
36 1
charge -1
@<TRIPOS>BOND
     1    36    37   ar
     2    37    38   ar
     3    37    30    1
     4    30    31   ar
     5    31    32   ar
     6    32    33   ar
     7    33    26    1
     8    26    27   am
     9    27    28    2
    10    27     1    1
    11     1    20    1
    12    20    21    1
    13    21    22    1
    14    22    23    1
    15    23    24    1
    16    24    25    1
    17     1     2    1
    18     2     3   ar
    19     3    13    1
    20    13    14   ar
    21    14    15   ar
    22    15    16   ar
    23    16    17    1
    24    16    18   ar
    25    18    19   ar
    26     3     4   ar
    27     4     5   ar
    28     5     6   ar
    29     6     7   ar
    30     7     8    1
    31     7     9   ar
    32     9    10    1
    33     9    11   ar
    34    11    12   ar
    35    33    34   ar
    36    34    35   ar
    37    35    30   ar
    38    25    20    1
    39    12     2   ar
    40    19    13   ar
    41    12     5   ar
    42    26    29    1
