@<TRIPOS>MOLECULE
*****
 30 33 0 0 0
SMALL
GASTEIGER

@<TRIPOS>ATOM
      1 N           1.7363    2.2793   20.2975 N.am    1  UNL1       -0.2683
      2 C           0.2527    2.3107   20.5170 C.2     1  UNL1        0.3047
      3 O          -0.5707    1.0852   20.2521 O.2     1  UNL1       -0.2525
      4 N          -0.4074    3.5675   21.0014 N.am    1  UNL1       -0.2863
      5 H           2.2767    3.0836   20.4713 H       1  UNL1        0.1564
      6 H           0.1330    4.3718   21.1752 H       1  UNL1        0.1512
      7 C          -1.8909    3.5988   21.2208 C.3     1  UNL1        0.1019
      8 C          -2.8221    3.6437   20.0458 C.3     1  UNL1        0.0642
      9 C          -4.3057    3.6750   20.2653 C.3     1  UNL1        0.1352
     10 C          -5.7745    3.7159   19.9641 C.3     1  UNL1        0.0437
     11 C          -4.2636    3.7028   18.7661 C.3     1  UNL1        0.0437
     12 O          -4.8580    3.6613   21.6599 O.3     1  UNL1       -0.4827
     13 C          -3.9267    3.6164   22.8349 C.ar    1  UNL1        0.1379
     14 C          -4.4790    3.6028   24.2295 C.ar    1  UNL1        0.0662
     15 C          -3.5477    3.5579   25.4045 C.ar    1  UNL1        0.1431
     16 F          -4.1001    3.5443   26.7991 F       1  UNL1       -0.2041
     17 C          -2.0642    3.5266   25.1850 C.ar    1  UNL1        0.0296
     18 C          -1.5120    3.5402   23.7905 C.ar    1  UNL1        0.0026
     19 C          -2.4432    3.5851   22.6154 C.ar    1  UNL1        0.0298
     20 C           3.1060   -0.4999   24.7303 C.3     1  UNL1        0.0521
     21 C           3.2587   -0.7477   23.2588 C.ar    1  UNL1        0.0594
     22 C           2.7512    0.2613   22.2717 C.ar    1  UNL1        0.0160
     23 C           2.9039    0.0135   20.8002 C.ar    1  UNL1        0.0162
     24 C           2.3964    1.0225   19.8131 C.ar    1  UNL1        0.0516
     25 C           2.5490    0.7747   18.3416 C.ar    1  UNL1        0.0147
     26 C           3.2092   -0.4822   17.8572 C.ar    1  UNL1        0.0013
     27 C           3.7166   -1.4912   18.8443 C.ar    1  UNL1        0.0016
     28 C           3.5640   -1.2433   20.3158 C.ar    1  UNL1        0.0204
     29 C           4.0714   -2.2523   21.3029 C.ar    1  UNL1        0.0984
     30 N           3.9188   -2.0045   22.7744 N.ar    1  UNL1       -0.2481
@<TRIPOS>BOND
     1    20    21    1
     2    21    22   ar
     3    22    23   ar
     4    23    24   ar
     5    24     1    1
     6     1     2   am
     7     2     3    2
     8     2     4   am
     9     7     4    1
    10     7     8    1
    11     8     9    1
    12     9    10    1
    13     9    11    1
    14     9    12    1
    15    12    13    1
    16    13    14   ar
    17    14    15   ar
    18    15    16    1
    19    15    17   ar
    20    17    18   ar
    21    18    19   ar
    22    24    25   ar
    23    25    26   ar
    24    26    27   ar
    25    27    28   ar
    26    28    29   ar
    27    29    30   ar
    28    30    21   ar
    29    28    23   ar
    30    19     7    1
    31    19    13   ar
    32     1     5    1
    33     4     6    1
@<TRIPOS>MOLECULE
*****
 30 33 0 0 0
SMALL
GASTEIGER

@<TRIPOS>ATOM
      1 N           5.9296   -1.5123   23.0975 N.am    1  UNL1       -0.2683
      2 C           6.1221   -2.7919   23.8563 C.2     1  UNL1        0.3047
      3 O           5.4236   -4.0416   23.4087 O.2     1  UNL1       -0.2525
      4 N           7.0131   -2.8218   25.0626 N.am    1  UNL1       -0.2863
      5 H           6.3881   -0.6921   23.3912 H       1  UNL1        0.1564
      6 H           7.4716   -2.0015   25.3563 H       1  UNL1        0.1512
      7 C           7.2056   -4.1013   25.8213 C.3     1  UNL1        0.1019
      8 C           7.5885   -5.3551   25.0924 C.3     1  UNL1        0.0642
      9 C           7.7809   -6.6347   25.8512 C.3     1  UNL1        0.1352
     10 C           8.0750   -8.0796   26.1265 C.3     1  UNL1        0.0437
     11 C           8.0735   -7.1108   24.4592 C.3     1  UNL1        0.0437
     12 O           7.5905   -6.6604   27.3388 O.3     1  UNL1       -0.4827
     13 C           7.2076   -5.4065   28.0677 C.ar    1  UNL1        0.1379
     14 C           7.0172   -5.4322   29.5553 C.ar    1  UNL1        0.0662
     15 C           6.6343   -4.1784   30.2842 C.ar    1  UNL1        0.1431
     16 F           6.4439   -4.2041   31.7719 F       1  UNL1       -0.2041
     17 C           6.4418   -2.8989   29.5255 C.ar    1  UNL1        0.0296
     18 C           6.6323   -2.8732   28.0379 C.ar    1  UNL1        0.0026
     19 C           7.0152   -4.1270   27.3090 C.ar    1  UNL1        0.0298
     20 C           9.1159   -2.5528   18.8531 C.3     1  UNL1        0.0521
     21 C           7.6511   -2.2703   19.0095 C.ar    1  UNL1        0.0594
     22 C           7.0773   -2.0177   20.3721 C.ar    1  UNL1        0.0160
     23 C           5.6124   -1.7352   20.5285 C.ar    1  UNL1        0.0162
     24 C           5.0386   -1.4825   21.8912 C.ar    1  UNL1        0.0516
     25 C           3.5737   -1.2000   22.0476 C.ar    1  UNL1        0.0147
     26 C           2.6827   -1.1702   20.8412 C.ar    1  UNL1        0.0013
     27 C           3.2566   -1.4229   19.4785 C.ar    1  UNL1        0.0016
     28 C           4.7214   -1.7053   19.3222 C.ar    1  UNL1        0.0204
     29 C           5.2952   -1.9580   17.9595 C.ar    1  UNL1        0.0984
     30 N           6.7601   -2.2405   17.8032 N.ar    1  UNL1       -0.2481
@<TRIPOS>BOND
     1    20    21    1
     2    21    22   ar
     3    22    23   ar
     4    23    24   ar
     5    24     1    1
     6     1     2   am
     7     2     3    2
     8     2     4   am
     9     7     4    1
    10     7     8    1
    11     8     9    1
    12     9    10    1
    13     9    11    1
    14     9    12    1
    15    12    13    1
    16    13    14   ar
    17    14    15   ar
    18    15    16    1
    19    15    17   ar
    20    17    18   ar
    21    18    19   ar
    22    24    25   ar
    23    25    26   ar
    24    26    27   ar
    25    27    28   ar
    26    28    29   ar
    27    29    30   ar
    28    30    21   ar
    29    28    23   ar
    30    19     7    1
    31    19    13   ar
    32     1     5    1
    33     4     6    1
@<TRIPOS>MOLECULE
*****
 30 33 0 0 0
SMALL
GASTEIGER

@<TRIPOS>ATOM
      1 N           1.8053    2.3626   21.2694 N.am    1  UNL1       -0.2683
      2 C           0.4465    2.3974   20.6349 C.2     1  UNL1        0.3047
      3 O          -0.3890    1.1527   20.5828 O.2     1  UNL1       -0.2525
      4 N          -0.0767    3.6768   20.0524 N.am    1  UNL1       -0.2863
      5 H           2.3537    3.1796   21.3036 H       1  UNL1        0.1564
      6 H           0.4717    4.4938   20.0866 H       1  UNL1        0.1512
      7 C          -1.4354    3.7116   19.4179 C.3     1  UNL1        0.1019
      8 C          -1.5645    3.7998   17.9261 C.3     1  UNL1        0.0642
      9 C          -2.9233    3.8345   17.2916 C.3     1  UNL1        0.1352
     10 C          -3.9827    3.8952   16.2315 C.3     1  UNL1        0.0437
     11 C          -2.0615    3.9091   16.0661 C.3     1  UNL1        0.0437
     12 O          -4.1529    3.7810   18.1489 O.3     1  UNL1       -0.4827
     13 C          -4.0239    3.6928   19.6408 C.ar    1  UNL1        0.1379
     14 C          -5.2535    3.6393   20.4981 C.ar    1  UNL1        0.0662
     15 C          -5.1244    3.5511   21.9899 C.ar    1  UNL1        0.1431
     16 F          -6.3542    3.4976   22.8473 F       1  UNL1       -0.2041
     17 C          -3.7657    3.5164   22.6244 C.ar    1  UNL1        0.0296
     18 C          -2.5361    3.5699   21.7671 C.ar    1  UNL1        0.0026
     19 C          -2.6651    3.6581   20.2753 C.ar    1  UNL1        0.0298
     20 C           3.6160   -0.5570   17.0924 C.3     1  UNL1        0.0521
     21 C           3.5557   -0.7867   18.5735 C.ar    1  UNL1        0.0594
     22 C           2.9723    0.2631   19.4722 C.ar    1  UNL1        0.0160
     23 C           2.9120    0.0334   20.9532 C.ar    1  UNL1        0.0162
     24 C           2.3285    1.0832   21.8519 C.ar    1  UNL1        0.0516
     25 C           2.2683    0.8536   23.3330 C.ar    1  UNL1        0.0147
     26 C           2.7915   -0.4259   23.9154 C.ar    1  UNL1        0.0013
     27 C           3.3750   -1.4757   23.0168 C.ar    1  UNL1        0.0016
     28 C           3.4352   -1.2460   21.5357 C.ar    1  UNL1        0.0204
     29 C           4.0187   -2.2957   20.6371 C.ar    1  UNL1        0.0984
     30 N           4.0789   -2.0661   19.1560 N.ar    1  UNL1       -0.2481
@<TRIPOS>BOND
     1    20    21    1
     2    21    22   ar
     3    22    23   ar
     4    23    24   ar
     5    24     1    1
     6     1     2   am
     7     2     3    2
     8     2     4   am
     9     7     4    1
    10     7     8    1
    11     8     9    1
    12     9    10    1
    13     9    11    1
    14     9    12    1
    15    12    13    1
    16    13    14   ar
    17    14    15   ar
    18    15    16    1
    19    15    17   ar
    20    17    18   ar
    21    18    19   ar
    22    24    25   ar
    23    25    26   ar
    24    26    27   ar
    25    27    28   ar
    26    28    29   ar
    27    29    30   ar
    28    30    21   ar
    29    28    23   ar
    30    19     7    1
    31    19    13   ar
    32     1     5    1
    33     4     6    1
@<TRIPOS>MOLECULE
*****
 30 33 0 0 0
SMALL
GASTEIGER

@<TRIPOS>ATOM
      1 N          -0.6041    3.6129   20.6719 N.am    1  UNL1       -0.2683
      2 C           0.1551    2.3242   20.5578 C.2     1  UNL1        0.3047
      3 O          -0.5845    1.0202   20.5051 O.2     1  UNL1       -0.2525
      4 N           1.6537    2.3394   20.4964 N.am    1  UNL1       -0.2863
      5 H          -0.1187    4.4687   20.7064 H       1  UNL1        0.1564
      6 H           2.1391    3.1952   20.5309 H       1  UNL1        0.1512
      7 C           2.4127    1.0507   20.3823 C.3     1  UNL1        0.1019
      8 C           2.7828    0.5153   19.0308 C.3     1  UNL1        0.0642
      9 C           3.5419   -0.7734   18.9168 C.3     1  UNL1        0.1352
     10 C           4.2515   -1.9413   18.2983 C.3     1  UNL1        0.0437
     11 C           3.3994   -0.4257   17.4646 C.3     1  UNL1        0.0437
     12 O           3.9309   -1.5268   20.1542 O.3     1  UNL1       -0.4827
     13 C           3.5608   -0.9914   21.5056 C.ar    1  UNL1        0.1379
     14 C           3.9497   -1.7448   22.7430 C.ar    1  UNL1        0.0662
     15 C           3.5796   -1.2094   24.0944 C.ar    1  UNL1        0.1431
     16 F           3.9686   -1.9629   25.3318 F       1  UNL1       -0.2041
     17 C           2.8206    0.0793   24.2085 C.ar    1  UNL1        0.0296
     18 C           2.4316    0.8326   22.9711 C.ar    1  UNL1        0.0026
     19 C           2.8017    0.2973   21.6197 C.ar    1  UNL1        0.0298
     20 C          -1.8881    3.4067   25.9215 C.3     1  UNL1        0.0521
     21 C          -2.6911    3.4468   24.6551 C.ar    1  UNL1        0.0594
     22 C          -1.9955    3.5022   23.3274 C.ar    1  UNL1        0.0160
     23 C          -2.7984    3.5423   22.0611 C.ar    1  UNL1        0.0162
     24 C          -2.1027    3.5977   20.7333 C.ar    1  UNL1        0.0516
     25 C          -2.9057    3.6378   19.4669 C.ar    1  UNL1        0.0147
     26 C          -4.4044    3.6225   19.5284 C.ar    1  UNL1        0.0013
     27 C          -5.1001    3.5672   20.8561 C.ar    1  UNL1        0.0016
     28 C          -4.2971    3.5271   22.1225 C.ar    1  UNL1        0.0204
     29 C          -4.9927    3.4717   23.4502 C.ar    1  UNL1        0.0984
     30 N          -4.1897    3.4316   24.7165 N.ar    1  UNL1       -0.2481
@<TRIPOS>BOND
     1    20    21    1
     2    21    22   ar
     3    22    23   ar
     4    23    24   ar
     5    24     1    1
     6     1     2   am
     7     2     3    2
     8     2     4   am
     9     7     4    1
    10     7     8    1
    11     8     9    1
    12     9    10    1
    13     9    11    1
    14     9    12    1
    15    12    13    1
    16    13    14   ar
    17    14    15   ar
    18    15    16    1
    19    15    17   ar
    20    17    18   ar
    21    18    19   ar
    22    24    25   ar
    23    25    26   ar
    24    26    27   ar
    25    27    28   ar
    26    28    29   ar
    27    29    30   ar
    28    30    21   ar
    29    28    23   ar
    30    19     7    1
    31    19    13   ar
    32     1     5    1
    33     4     6    1
@<TRIPOS>MOLECULE
*****
 30 33 0 0 0
SMALL
GASTEIGER

@<TRIPOS>ATOM
      1 N           1.6684    2.5039   20.3965 N.am    1  UNL1       -0.2683
      2 C           0.2489    2.4735   20.8806 C.2     1  UNL1        0.3047
      3 O          -0.5434    1.2022   20.8016 O.2     1  UNL1       -0.2525
      4 N          -0.3782    3.7143   21.4437 N.am    1  UNL1       -0.2863
      5 H           2.1884    3.3382   20.4484 H       1  UNL1        0.1564
      6 H           0.1418    4.5486   21.4956 H       1  UNL1        0.1512
      7 C          -1.7976    3.6838   21.9278 C.3     1  UNL1        0.1019
      8 C          -2.0873    3.6034   23.3973 C.3     1  UNL1        0.0642
      9 C          -3.5068    3.5729   23.8813 C.3     1  UNL1        0.1352
     10 C          -4.6747    3.5185   24.8210 C.3     1  UNL1        0.0437
     11 C          -2.7827    3.5040   25.1932 C.3     1  UNL1        0.0437
     12 O          -4.6365    3.6229   22.8958 O.3     1  UNL1       -0.4827
     13 C          -4.3468    3.7033   21.4263 C.ar    1  UNL1        0.1379
     14 C          -5.4765    3.7533   20.4408 C.ar    1  UNL1        0.0662
     15 C          -5.1868    3.8338   18.9712 C.ar    1  UNL1        0.1431
     16 F          -6.3165    3.8838   17.9857 F       1  UNL1       -0.2041
     17 C          -3.7674    3.8642   18.4872 C.ar    1  UNL1        0.0296
     18 C          -2.6377    3.8142   19.4727 C.ar    1  UNL1        0.0026
     19 C          -2.9274    3.7338   20.9422 C.ar    1  UNL1        0.0298
     20 C           3.1079   -0.5116   24.6491 C.3     1  UNL1        0.0521
     21 C           3.2183   -0.6883   23.1637 C.ar    1  UNL1        0.0594
     22 C           2.7017    0.3757   22.2413 C.ar    1  UNL1        0.0160
     23 C           2.8122    0.1990   20.7559 C.ar    1  UNL1        0.0162
     24 C           2.2955    1.2631   19.8335 C.ar    1  UNL1        0.0516
     25 C           2.4060    1.0864   18.3480 C.ar    1  UNL1        0.0147
     26 C           3.0331   -0.1545   17.7850 C.ar    1  UNL1        0.0013
     27 C           3.5498   -1.2186   18.7073 C.ar    1  UNL1        0.0016
     28 C           3.4393   -1.0418   20.1928 C.ar    1  UNL1        0.0204
     29 C           3.9560   -2.1059   21.1152 C.ar    1  UNL1        0.0984
     30 N           3.8455   -1.9291   22.6006 N.ar    1  UNL1       -0.2481
@<TRIPOS>BOND
     1    20    21    1
     2    21    22   ar
     3    22    23   ar
     4    23    24   ar
     5    24     1    1
     6     1     2   am
     7     2     3    2
     8     2     4   am
     9     7     4    1
    10     7     8    1
    11     8     9    1
    12     9    10    1
    13     9    11    1
    14     9    12    1
    15    12    13    1
    16    13    14   ar
    17    14    15   ar
    18    15    16    1
    19    15    17   ar
    20    17    18   ar
    21    18    19   ar
    22    24    25   ar
    23    25    26   ar
    24    26    27   ar
    25    27    28   ar
    26    28    29   ar
    27    29    30   ar
    28    30    21   ar
    29    28    23   ar
    30    19     7    1
    31    19    13   ar
    32     1     5    1
    33     4     6    1
@<TRIPOS>MOLECULE
*****
 30 33 0 0 0
SMALL
GASTEIGER

@<TRIPOS>ATOM
      1 N          -5.8392    3.3329   23.3038 N.am    1  UNL1       -0.2683
      2 C          -5.0267    3.8130   22.1378 C.2     1  UNL1        0.3047
      3 O          -4.9108    5.2823   21.8587 O.2     1  UNL1       -0.2525
      4 N          -4.3300    2.8239   21.2511 N.am    1  UNL1       -0.2863
      5 H          -5.9153    2.3686   23.4870 H       1  UNL1        0.1564
      6 H          -4.4061    1.8596   21.4343 H       1  UNL1        0.1512
      7 C          -3.5175    3.3041   20.0853 C.3     1  UNL1        0.1019
      8 C          -4.1973    3.6856   18.8037 C.3     1  UNL1        0.0642
      9 C          -3.3847    4.1658   17.6378 C.3     1  UNL1        0.1352
     10 C          -3.0501    4.6728   16.2664 C.3     1  UNL1        0.0437
     11 C          -4.7608    4.2433   17.0458 C.3     1  UNL1        0.0437
     12 O          -1.8924    4.2644   17.7535 O.3     1  UNL1       -0.4827
     13 C          -1.2127    3.8828   19.0351 C.ar    1  UNL1        0.1379
     14 C           0.2795    3.9814   19.1508 C.ar    1  UNL1        0.0662
     15 C           0.9593    3.5999   20.4324 C.ar    1  UNL1        0.1431
     16 F           2.4516    3.6985   20.5480 F       1  UNL1       -0.2041
     17 C           0.1468    3.1197   21.5982 C.ar    1  UNL1        0.0296
     18 C          -1.3455    3.0211   21.4825 C.ar    1  UNL1        0.0026
     19 C          -2.0252    3.4027   20.2009 C.ar    1  UNL1        0.0298
     20 C          -2.2862    4.6508   27.1624 C.3     1  UNL1        0.0521
     21 C          -3.6970    5.0631   26.8628 C.ar    1  UNL1        0.0594
     22 C          -4.4111    4.4864   25.6765 C.ar    1  UNL1        0.0160
     23 C          -5.8218    4.8988   25.3769 C.ar    1  UNL1        0.0162
     24 C          -6.5359    4.3220   24.1905 C.ar    1  UNL1        0.0516
     25 C          -7.9466    4.7344   23.8909 C.ar    1  UNL1        0.0147
     26 C          -8.6433    5.7235   24.7777 C.ar    1  UNL1        0.0013
     27 C          -7.9292    6.3002   25.9640 C.ar    1  UNL1        0.0016
     28 C          -6.5185    5.8879   26.2636 C.ar    1  UNL1        0.0204
     29 C          -5.8044    6.4646   27.4499 C.ar    1  UNL1        0.0984
     30 N          -4.3936    6.0522   27.7495 N.ar    1  UNL1       -0.2481
@<TRIPOS>BOND
     1    20    21    1
     2    21    22   ar
     3    22    23   ar
     4    23    24   ar
     5    24     1    1
     6     1     2   am
     7     2     3    2
     8     2     4   am
     9     7     4    1
    10     7     8    1
    11     8     9    1
    12     9    10    1
    13     9    11    1
    14     9    12    1
    15    12    13    1
    16    13    14   ar
    17    14    15   ar
    18    15    16    1
    19    15    17   ar
    20    17    18   ar
    21    18    19   ar
    22    24    25   ar
    23    25    26   ar
    24    26    27   ar
    25    27    28   ar
    26    28    29   ar
    27    29    30   ar
    28    30    21   ar
    29    28    23   ar
    30    19     7    1
    31    19    13   ar
    32     1     5    1
    33     4     6    1
@<TRIPOS>MOLECULE
*****
 30 33 0 0 0
SMALL
GASTEIGER

@<TRIPOS>ATOM
      1 N           6.8647   -2.2387   22.0503 N.am    1  UNL1       -0.2683
      2 C           6.8535   -3.3455   23.0627 C.2     1  UNL1        0.3047
      3 O           5.8898   -4.4857   22.9167 O.2     1  UNL1       -0.2525
      4 N           7.8059   -3.3121   24.2210 N.am    1  UNL1       -0.2863
      5 H           7.4972   -1.4903   22.1461 H       1  UNL1        0.1564
      6 H           8.4383   -2.5637   24.3169 H       1  UNL1        0.1512
      7 C           7.7946   -4.4189   25.2333 C.3     1  UNL1        0.1019
      8 C           8.2179   -5.8022   24.8369 C.3     1  UNL1        0.0642
      9 C           8.2066   -6.9091   25.8493 C.3     1  UNL1        0.1352
     10 C           8.3654   -8.2769   26.4441 C.3     1  UNL1        0.0437
     11 C           8.6964   -7.6607   24.6471 C.3     1  UNL1        0.0437
     12 O           7.7720   -6.6325   27.2581 O.3     1  UNL1       -0.4827
     13 C           7.3487   -5.2492   27.6545 C.ar    1  UNL1        0.1379
     14 C           6.9141   -4.9726   29.0632 C.ar    1  UNL1        0.0662
     15 C           6.4908   -3.5893   29.4597 C.ar    1  UNL1        0.1431
     16 F           6.0562   -3.3127   30.8685 F       1  UNL1       -0.2041
     17 C           6.5021   -2.4825   28.4474 C.ar    1  UNL1        0.0296
     18 C           6.9367   -2.7590   27.0386 C.ar    1  UNL1        0.0026
     19 C           7.3600   -4.1424   26.6422 C.ar    1  UNL1        0.0298
     20 C           2.3558    0.2209   23.7443 C.3     1  UNL1        0.0521
     21 C           2.7687   -0.4190   22.4521 C.ar    1  UNL1        0.0594
     22 C           4.1340   -1.0256   22.3181 C.ar    1  UNL1        0.0160
     23 C           4.5469   -1.6655   21.0259 C.ar    1  UNL1        0.0162
     24 C           5.9123   -2.2720   20.8920 C.ar    1  UNL1        0.0516
     25 C           6.3253   -2.9120   19.5997 C.ar    1  UNL1        0.0147
     26 C           5.3728   -2.9453   18.4413 C.ar    1  UNL1        0.0013
     27 C           4.0075   -2.3388   18.5752 C.ar    1  UNL1        0.0016
     28 C           3.5945   -1.6989   19.8675 C.ar    1  UNL1        0.0204
     29 C           2.2292   -1.0923   20.0015 C.ar    1  UNL1        0.0984
     30 N           1.8163   -0.4524   21.2937 N.ar    1  UNL1       -0.2481
@<TRIPOS>BOND
     1    20    21    1
     2    21    22   ar
     3    22    23   ar
     4    23    24   ar
     5    24     1    1
     6     1     2   am
     7     2     3    2
     8     2     4   am
     9     7     4    1
    10     7     8    1
    11     8     9    1
    12     9    10    1
    13     9    11    1
    14     9    12    1
    15    12    13    1
    16    13    14   ar
    17    14    15   ar
    18    15    16    1
    19    15    17   ar
    20    17    18   ar
    21    18    19   ar
    22    24    25   ar
    23    25    26   ar
    24    26    27   ar
    25    27    28   ar
    26    28    29   ar
    27    29    30   ar
    28    30    21   ar
    29    28    23   ar
    30    19     7    1
    31    19    13   ar
    32     1     5    1
    33     4     6    1
@<TRIPOS>MOLECULE
*****
 30 33 0 0 0
SMALL
GASTEIGER

@<TRIPOS>ATOM
      1 N           6.3995   -0.7895   25.4005 N.am    1  UNL1       -0.2683
      2 C           5.2932   -1.0658   24.4259 C.2     1  UNL1        0.3047
      3 O           4.0531   -1.7765   24.8808 O.2     1  UNL1       -0.2525
      4 N           5.4271   -0.6315   22.9964 N.am    1  UNL1       -0.2863
      5 H           7.2135   -0.3231   25.1020 H       1  UNL1        0.1564
      6 H           6.2411   -0.1650   22.6979 H       1  UNL1        0.1512
      7 C           4.3209   -0.9078   22.0219 C.3     1  UNL1        0.1019
      8 C           3.0995   -0.0371   22.0071 C.3     1  UNL1        0.0642
      9 C           1.9932   -0.3135   21.0324 C.3     1  UNL1        0.1352
     10 C           0.6898   -0.1747   20.3033 C.3     1  UNL1        0.0437
     11 C           1.4254    0.8817   21.7389 C.3     1  UNL1        0.0437
     12 O           2.1083   -1.4605   20.0727 O.3     1  UNL1       -0.4827
     13 C           3.3296   -2.3312   20.0876 C.ar    1  UNL1        0.1379
     14 C           3.4447   -3.4782   19.1279 C.ar    1  UNL1        0.0662
     15 C           4.6661   -4.3489   19.1427 C.ar    1  UNL1        0.1431
     16 F           4.7811   -5.4960   18.1830 F       1  UNL1       -0.2041
     17 C           5.7723   -4.0726   20.1173 C.ar    1  UNL1        0.0296
     18 C           5.6573   -2.9256   21.0770 C.ar    1  UNL1        0.0026
     19 C           4.4359   -2.0549   21.0621 C.ar    1  UNL1        0.0298
     20 C           7.5552   -6.0724   25.4774 C.3     1  UNL1        0.0521
     21 C           7.1658   -5.0774   26.5303 C.ar    1  UNL1        0.0594
     22 C           6.9104   -3.6481   26.1537 C.ar    1  UNL1        0.0160
     23 C           6.5211   -2.6532   27.2066 C.ar    1  UNL1        0.0162
     24 C           6.2656   -1.2239   26.8300 C.ar    1  UNL1        0.0516
     25 C           5.8763   -0.2289   27.8828 C.ar    1  UNL1        0.0147
     26 C           5.7424   -0.6634   29.3123 C.ar    1  UNL1        0.0013
     27 C           5.9978   -2.0927   29.6889 C.ar    1  UNL1        0.0016
     28 C           6.3872   -3.0876   28.6360 C.ar    1  UNL1        0.0204
     29 C           6.6426   -4.5169   29.0126 C.ar    1  UNL1        0.0984
     30 N           7.0320   -5.5118   27.9597 N.ar    1  UNL1       -0.2481
@<TRIPOS>BOND
     1    20    21    1
     2    21    22   ar
     3    22    23   ar
     4    23    24   ar
     5    24     1    1
     6     1     2   am
     7     2     3    2
     8     2     4   am
     9     7     4    1
    10     7     8    1
    11     8     9    1
    12     9    10    1
    13     9    11    1
    14     9    12    1
    15    12    13    1
    16    13    14   ar
    17    14    15   ar
    18    15    16    1
    19    15    17   ar
    20    17    18   ar
    21    18    19   ar
    22    24    25   ar
    23    25    26   ar
    24    26    27   ar
    25    27    28   ar
    26    28    29   ar
    27    29    30   ar
    28    30    21   ar
    29    28    23   ar
    30    19     7    1
    31    19    13   ar
    32     1     5    1
    33     4     6    1
@<TRIPOS>MOLECULE
*****
 30 33 0 0 0
SMALL
GASTEIGER

@<TRIPOS>ATOM
      1 N          -0.8432    3.7140   21.2039 N.am    1  UNL1       -0.2683
      2 C          -0.0400    2.4673   20.9782 C.2     1  UNL1        0.3047
      3 O          -0.7351    1.1670   20.7023 O.2     1  UNL1       -0.2525
      4 N           1.4581    2.5210   21.0284 N.am    1  UNL1       -0.2863
      5 H          -0.3870    4.5674   21.3850 H       1  UNL1        0.1564
      6 H           1.9143    3.3745   21.2095 H       1  UNL1        0.1512
      7 C           2.2612    1.2744   20.8027 C.3     1  UNL1        0.1019
      8 C           2.5994    0.8426   19.4066 C.3     1  UNL1        0.0642
      9 C           3.4025   -0.4041   19.1809 C.3     1  UNL1        0.1352
     10 C           4.1322   -1.4998   18.4620 C.3     1  UNL1        0.0437
     11 C           3.1910    0.0302   17.7608 C.3     1  UNL1        0.0437
     12 O           3.8675   -1.2188   20.3513 O.3     1  UNL1       -0.4827
     13 C           3.5293   -0.7870   21.7475 C.ar    1  UNL1        0.1379
     14 C           3.9942   -1.6018   22.9179 C.ar    1  UNL1        0.0662
     15 C           3.6560   -1.1700   24.3140 C.ar    1  UNL1        0.1431
     16 F           4.1210   -1.9848   25.4845 F       1  UNL1       -0.2041
     17 C           2.8529    0.0766   24.5397 C.ar    1  UNL1        0.0296
     18 C           2.3880    0.8914   23.3693 C.ar    1  UNL1        0.0026
     19 C           2.7262    0.4596   21.9732 C.ar    1  UNL1        0.0298
     20 C          -2.1854    4.1424   15.9824 C.3     1  UNL1        0.0521
     21 C          -2.9735    3.9950   17.2501 C.ar    1  UNL1        0.0594
     22 C          -2.2634    3.9013   18.5680 C.ar    1  UNL1        0.0160
     23 C          -3.0515    3.7539   19.8358 C.ar    1  UNL1        0.0162
     24 C          -2.3414    3.6603   21.1538 C.ar    1  UNL1        0.0516
     25 C          -3.1295    3.5129   22.4215 C.ar    1  UNL1        0.0147
     26 C          -4.6277    3.4592   22.3713 C.ar    1  UNL1        0.0013
     27 C          -5.3378    3.5529   21.0533 C.ar    1  UNL1        0.0016
     28 C          -4.5497    3.7002   19.7856 C.ar    1  UNL1        0.0204
     29 C          -5.2598    3.7939   18.4677 C.ar    1  UNL1        0.0984
     30 N          -4.4716    3.9413   17.1999 N.ar    1  UNL1       -0.2481
@<TRIPOS>BOND
     1    20    21    1
     2    21    22   ar
     3    22    23   ar
     4    23    24   ar
     5    24     1    1
     6     1     2   am
     7     2     3    2
     8     2     4   am
     9     7     4    1
    10     7     8    1
    11     8     9    1
    12     9    10    1
    13     9    11    1
    14     9    12    1
    15    12    13    1
    16    13    14   ar
    17    14    15   ar
    18    15    16    1
    19    15    17   ar
    20    17    18   ar
    21    18    19   ar
    22    24    25   ar
    23    25    26   ar
    24    26    27   ar
    25    27    28   ar
    26    28    29   ar
    27    29    30   ar
    28    30    21   ar
    29    28    23   ar
    30    19     7    1
    31    19    13   ar
    32     1     5    1
    33     4     6    1
