@<TRIPOS>MOLECULE
*****
 28 30 0 0 0
SMALL
GASTEIGER

@<TRIPOS>ATOM
      1 C          -8.3559  -18.4865   21.0375 C.ar    1  UNL1        0.0692
      2 C          -9.1803  -19.6522   20.5778 C.ar    1  UNL1        0.0059
      3 C         -10.6778  -19.5767   20.6249 C.ar    1  UNL1        0.0023
      4 C         -11.3506  -18.3356   21.1317 C.ar    1  UNL1        0.0284
      5 C         -12.7970  -17.9729   21.2938 C.ar    1  UNL1        0.1078
      6 N         -12.8664  -16.5831   21.8537 N.ar    1  UNL1       -0.2076
      7 S         -11.4629  -16.0868   22.0377 S.2     1  UNL1        0.0143
      8 C         -10.5260  -17.1699   21.5915 C.ar    1  UNL1        0.0624
      9 C          -9.0287  -17.2454   21.5444 C.ar    1  UNL1        0.0603
     10 O          -6.0677  -18.5753   22.2649 O.2     1  UNL1       -0.2680
     11 C          -6.8584  -18.5619   20.9904 C.2     1  UNL1        0.2691
     12 N          -6.1519  -18.6240   19.6688 N.am    1  UNL1       -0.1896
     13 H          -6.6709  -18.6152   18.8322 H       1  UNL1        0.1828
     14 O          -4.6545  -18.6994   19.6216 O.3     1  UNL1       -0.2635
     15 C          -3.9449  -19.8885   20.1984 C.3     1  UNL1        0.2026
     16 C          -3.0552  -19.7232   21.3947 C.3     1  UNL1        0.1719
     17 O          -1.7308  -20.4257   21.4470 O.3     1  UNL1       -0.3794
     18 H          -1.8744  -21.3843   21.4827 H       1  UNL1        0.2105
     19 N          -8.2041  -16.0797   22.0041 N.pl3   1  UNL1       -0.3102
     20 H          -7.8713  -15.4237   21.3498 H       1  UNL1        0.1523
     21 C          -7.8866  -15.9137   23.4608 C.ar    1  UNL1        0.0762
     22 C          -8.9021  -16.2929   24.4976 C.ar    1  UNL1        0.0173
     23 C          -8.5846  -16.1268   25.9542 C.ar    1  UNL1        0.0072
     24 C          -7.2517  -15.5816   26.3739 C.ar    1  UNL1        0.0324
     25 I          -6.9342  -15.4155   27.8305 I       1  UNL1       -0.0424
     26 C          -6.2363  -15.2025   25.3370 C.ar    1  UNL1        0.0367
     27 C          -6.5538  -15.3685   23.8804 C.ar    1  UNL1        0.1538
     28 F          -5.5383  -14.9893   22.8435 F       1  UNL1       -0.2028
@<TRIPOS>BOND
     1    10    11    2
     2    11    12   am
     3    12    14    1
     4    14    15    1
     5    15    16    1
     6    16    17    1
     7    11     1    1
     8     1     2   ar
     9     2     3   ar
    10     3     4   ar
    11     4     5   ar
    12     5     6   ar
    13     6     7   ar
    14     7     8   ar
    15     8     9   ar
    16     9    19    1
    17    19    21    1
    18    21    22   ar
    19    22    23   ar
    20    23    24   ar
    21    24    25    1
    22    24    26   ar
    23    26    27   ar
    24    27    28    1
    25     9     1   ar
    26    27    21   ar
    27     8     4   ar
    28    12    13    1
    29    17    18    1
    30    19    20    1
@<TRIPOS>MOLECULE
*****
 28 30 0 0 0
SMALL
GASTEIGER

@<TRIPOS>ATOM
      1 C          -9.8951  -17.3075   23.7038 C.ar    1  UNL1        0.0692
      2 C         -10.9144  -16.2725   23.3307 C.ar    1  UNL1        0.0059
      3 C         -11.5176  -16.2746   21.9573 C.ar    1  UNL1        0.0023
      4 C         -11.1012  -17.3119   20.9570 C.ar    1  UNL1        0.0284
      5 C         -11.5188  -17.5628   19.5383 C.ar    1  UNL1        0.1078
      6 N         -10.7574  -18.7530   19.0347 N.ar    1  UNL1       -0.2076
      7 S          -9.8693  -19.2377   20.1420 S.2     1  UNL1        0.0143
      8 C         -10.0817  -18.3471   21.3301 C.ar    1  UNL1        0.0624
      9 C          -9.4787  -18.3449   22.7036 C.ar    1  UNL1        0.0603
     10 O          -9.3742  -18.5335   25.9344 O.2     1  UNL1       -0.2680
     11 C          -9.2919  -17.3054   25.0773 C.2     1  UNL1        0.2691
     12 N          -8.6066  -16.0750   25.5934 N.am    1  UNL1       -0.1896
     13 H          -8.5526  -15.2689   25.0308 H       1  UNL1        0.1828
     14 O          -8.0034  -16.0728   26.9668 O.3     1  UNL1       -0.2635
     15 C          -6.5888  -15.6143   27.1640 C.3     1  UNL1        0.2026
     16 C          -5.7588  -15.2130   25.9809 C.3     1  UNL1        0.1719
     17 O          -6.3561  -14.3616   24.8999 O.3     1  UNL1       -0.3794
     18 H          -7.0555  -14.8580   24.4467 H       1  UNL1        0.2105
     19 N          -8.4592  -19.3800   23.0767 N.pl3   1  UNL1       -0.3102
     20 H          -8.6576  -20.0328   23.7865 H       1  UNL1        0.1523
     21 C          -7.1375  -19.4205   22.3684 C.ar    1  UNL1        0.0762
     22 C          -6.7877  -20.5925   21.5000 C.ar    1  UNL1        0.0173
     23 C          -5.4660  -20.6330   20.7917 C.ar    1  UNL1        0.0072
     24 C          -4.4943  -19.5016   20.9519 C.ar    1  UNL1        0.0324
     25 I          -3.1727  -19.5420   20.2437 I       1  UNL1       -0.0424
     26 C          -4.8442  -18.3297   21.8204 C.ar    1  UNL1        0.0367
     27 C          -6.1658  -18.2892   22.5286 C.ar    1  UNL1        0.1538
     28 F          -6.5157  -17.1172   23.3971 F       1  UNL1       -0.2028
@<TRIPOS>BOND
     1    10    11    2
     2    11    12   am
     3    12    14    1
     4    14    15    1
     5    15    16    1
     6    16    17    1
     7    11     1    1
     8     1     2   ar
     9     2     3   ar
    10     3     4   ar
    11     4     5   ar
    12     5     6   ar
    13     6     7   ar
    14     7     8   ar
    15     8     9   ar
    16     9    19    1
    17    19    21    1
    18    21    22   ar
    19    22    23   ar
    20    23    24   ar
    21    24    25    1
    22    24    26   ar
    23    26    27   ar
    24    27    28    1
    25     9     1   ar
    26    27    21   ar
    27     8     4   ar
    28    12    13    1
    29    17    18    1
    30    19    20    1
@<TRIPOS>MOLECULE
*****
 28 30 0 0 0
SMALL
GASTEIGER

@<TRIPOS>ATOM
      1 C          -5.5457  -17.3797   23.0694 C.ar    1  UNL1        0.0692
      2 C          -4.4294  -18.3754   23.1804 C.ar    1  UNL1        0.0059
      3 C          -4.4339  -19.6059   22.3226 C.ar    1  UNL1        0.0023
      4 C          -5.5547  -19.8406   21.3537 C.ar    1  UNL1        0.0284
      5 C          -5.8276  -20.9528   20.3849 C.ar    1  UNL1        0.1078
      6 N          -7.1126  -20.6444   19.6752 N.ar    1  UNL1       -0.2076
      7 S          -7.6338  -19.3416   20.2053 S.2     1  UNL1        0.0143
      8 C          -6.6710  -18.8448   21.2427 C.ar    1  UNL1        0.0624
      9 C          -6.6665  -17.6143   22.1006 C.ar    1  UNL1        0.0603
     10 O          -5.6130  -14.7921   23.2926 O.2     1  UNL1       -0.2680
     11 C          -5.5412  -16.1492   23.9273 C.2     1  UNL1        0.2691
     12 N          -5.4649  -16.2759   25.4200 N.am    1  UNL1       -0.1896
     13 H          -5.4178  -17.1667   25.8366 H       1  UNL1        0.1828
     14 O          -5.4605  -15.0455   26.2779 O.3     1  UNL1       -0.2635
     15 C          -6.5750  -14.8071   27.2532 C.3     1  UNL1        0.2026
     16 C          -7.8921  -15.5015   27.0712 C.3     1  UNL1        0.1719
     17 O          -8.6015  -15.4299   25.7514 O.3     1  UNL1       -0.3794
     18 H          -8.8753  -14.5152   25.5806 H       1  UNL1        0.2105
     19 N          -7.7827  -16.6185   21.9896 N.pl3   1  UNL1       -0.3102
     20 H          -7.6105  -15.7262   21.6111 H       1  UNL1        0.1523
     21 C          -9.1615  -16.9824   22.4554 C.ar    1  UNL1        0.0762
     22 C          -9.3421  -18.0105   23.5325 C.ar    1  UNL1        0.0173
     23 C         -10.7209  -18.3744   23.9983 C.ar    1  UNL1        0.0072
     24 C         -11.9187  -17.7101   23.3869 C.ar    1  UNL1        0.0324
     25 I         -13.2974  -18.0739   23.8526 I       1  UNL1       -0.0424
     26 C         -11.7380  -16.6820   22.3097 C.ar    1  UNL1        0.0367
     27 C         -10.3593  -16.3181   21.8440 C.ar    1  UNL1        0.1538
     28 F         -10.1786  -15.2900   20.7668 F       1  UNL1       -0.2028
@<TRIPOS>BOND
     1    10    11    2
     2    11    12   am
     3    12    14    1
     4    14    15    1
     5    15    16    1
     6    16    17    1
     7    11     1    1
     8     1     2   ar
     9     2     3   ar
    10     3     4   ar
    11     4     5   ar
    12     5     6   ar
    13     6     7   ar
    14     7     8   ar
    15     8     9   ar
    16     9    19    1
    17    19    21    1
    18    21    22   ar
    19    22    23   ar
    20    23    24   ar
    21    24    25    1
    22    24    26   ar
    23    26    27   ar
    24    27    28    1
    25     9     1   ar
    26    27    21   ar
    27     8     4   ar
    28    12    13    1
    29    17    18    1
    30    19    20    1
@<TRIPOS>MOLECULE
*****
 28 30 0 0 0
SMALL
GASTEIGER

@<TRIPOS>ATOM
      1 C          -9.2764  -17.4257   24.9156 C.ar    1  UNL1        0.0692
      2 C          -9.4238  -17.4165   26.4082 C.ar    1  UNL1        0.0059
      3 C          -8.4378  -16.6672   27.2547 C.ar    1  UNL1        0.0023
      4 C          -7.3044  -15.9271   26.6084 C.ar    1  UNL1        0.0284
      5 C          -6.1863  -15.1065   27.1796 C.ar    1  UNL1        0.1078
      6 N          -5.3479  -14.6085   26.0399 N.ar    1  UNL1       -0.2076
      7 S          -5.9478  -15.1213   24.7643 S.2     1  UNL1        0.0143
      8 C          -7.1571  -15.9363   25.1157 C.ar    1  UNL1        0.0624
      9 C          -8.1430  -16.6855   24.2692 C.ar    1  UNL1        0.0603
     10 O          -9.9954  -19.6020   23.6921 O.2     1  UNL1       -0.2680
     11 C         -10.2624  -18.1750   24.0690 C.2     1  UNL1        0.2691
     12 N         -11.5154  -17.4971   23.5996 N.am    1  UNL1       -0.1896
     13 H         -11.6906  -16.5604   23.8470 H       1  UNL1        0.1828
     14 O         -12.5014  -18.2463   22.7531 O.3     1  UNL1       -0.2635
     15 C         -12.5808  -17.9782   21.2793 C.3     1  UNL1        0.2026
     16 C         -12.0843  -16.6753   20.7262 C.3     1  UNL1        0.1719
     17 O         -10.8411  -16.0487   21.2847 O.3     1  UNL1       -0.3794
     18 H         -10.9971  -15.7854   22.2052 H       1  UNL1        0.2105
     19 N          -7.9957  -16.6947   22.7765 N.pl3   1  UNL1       -0.3102
     20 H          -8.4834  -16.0372   22.2297 H       1  UNL1        0.1523
     21 C          -7.1052  -17.7058   22.1169 C.ar    1  UNL1        0.0762
     22 C          -5.6733  -17.8360   22.5444 C.ar    1  UNL1        0.0173
     23 C          -4.7828  -18.8470   21.8848 C.ar    1  UNL1        0.0072
     24 C          -5.3243  -19.7277   20.7979 C.ar    1  UNL1        0.0324
     25 I          -4.4339  -20.7387   20.1384 I       1  UNL1       -0.0424
     26 C          -6.7562  -19.5974   20.3706 C.ar    1  UNL1        0.0367
     27 C          -7.6466  -18.5864   21.0302 C.ar    1  UNL1        0.1538
     28 F          -9.0786  -18.4561   20.6028 F       1  UNL1       -0.2028
@<TRIPOS>BOND
     1    10    11    2
     2    11    12   am
     3    12    14    1
     4    14    15    1
     5    15    16    1
     6    16    17    1
     7    11     1    1
     8     1     2   ar
     9     2     3   ar
    10     3     4   ar
    11     4     5   ar
    12     5     6   ar
    13     6     7   ar
    14     7     8   ar
    15     8     9   ar
    16     9    19    1
    17    19    21    1
    18    21    22   ar
    19    22    23   ar
    20    23    24   ar
    21    24    25    1
    22    24    26   ar
    23    26    27   ar
    24    27    28    1
    25     9     1   ar
    26    27    21   ar
    27     8     4   ar
    28    12    13    1
    29    17    18    1
    30    19    20    1
@<TRIPOS>MOLECULE
*****
 28 30 0 0 0
SMALL
GASTEIGER

@<TRIPOS>ATOM
      1 C          -8.5012  -17.1077   22.3785 C.ar    1  UNL1        0.0692
      2 C          -9.7650  -16.5705   21.7753 C.ar    1  UNL1        0.0059
      3 C         -10.4084  -17.2838   20.6231 C.ar    1  UNL1        0.0023
      4 C          -9.7878  -18.5342   20.0743 C.ar    1  UNL1        0.0284
      5 C         -10.1908  -19.4464   18.9538 C.ar    1  UNL1        0.1078
      6 N          -9.1760  -20.5474   18.8647 N.ar    1  UNL1       -0.2076
      7 S          -8.1457  -20.3156   19.9300 S.2     1  UNL1        0.0143
      8 C          -8.5238  -19.0714   20.6776 C.ar    1  UNL1        0.0624
      9 C          -7.8806  -18.3581   21.8297 C.ar    1  UNL1        0.0603
     10 O          -8.4157  -16.5492   24.9144 O.2     1  UNL1       -0.2680
     11 C          -7.8578  -16.3944   23.5307 C.2     1  UNL1        0.2691
     12 N          -6.6566  -15.5265   23.2990 N.am    1  UNL1       -0.1896
     13 H          -6.2905  -15.4249   22.3908 H       1  UNL1        0.1828
     14 O          -6.0132  -14.8132   24.4511 O.3     1  UNL1       -0.2635
     15 C          -5.5112  -15.5931   25.6301 C.3     1  UNL1        0.2026
     16 C          -6.2283  -15.5096   26.9449 C.3     1  UNL1        0.1719
     17 O          -7.5591  -14.8226   27.0309 O.3     1  UNL1       -0.3794
     18 H          -7.4472  -13.8769   26.8466 H       1  UNL1        0.2105
     19 N          -6.6166  -18.8953   22.4330 N.pl3   1  UNL1       -0.3102
     20 H          -6.6496  -19.3963   23.2798 H       1  UNL1        0.1523
     21 C          -5.3024  -18.6690   21.7460 C.ar    1  UNL1        0.0762
     22 C          -5.1579  -18.9744   20.2846 C.ar    1  UNL1        0.0173
     23 C          -3.8437  -18.7482   19.5976 C.ar    1  UNL1        0.0072
     24 C          -2.6743  -18.2165   20.3721 C.ar    1  UNL1        0.0324
     25 I          -1.3601  -17.9903   19.6852 I       1  UNL1       -0.0424
     26 C          -2.8190  -17.9112   21.8335 C.ar    1  UNL1        0.0367
     27 C          -4.1331  -18.1374   22.5205 C.ar    1  UNL1        0.1538
     28 F          -4.2777  -17.8320   23.9820 F       1  UNL1       -0.2028
@<TRIPOS>BOND
     1    10    11    2
     2    11    12   am
     3    12    14    1
     4    14    15    1
     5    15    16    1
     6    16    17    1
     7    11     1    1
     8     1     2   ar
     9     2     3   ar
    10     3     4   ar
    11     4     5   ar
    12     5     6   ar
    13     6     7   ar
    14     7     8   ar
    15     8     9   ar
    16     9    19    1
    17    19    21    1
    18    21    22   ar
    19    22    23   ar
    20    23    24   ar
    21    24    25    1
    22    24    26   ar
    23    26    27   ar
    24    27    28    1
    25     9     1   ar
    26    27    21   ar
    27     8     4   ar
    28    12    13    1
    29    17    18    1
    30    19    20    1
@<TRIPOS>MOLECULE
*****
 28 30 0 0 0
SMALL
GASTEIGER

@<TRIPOS>ATOM
      1 C          -9.2426  -17.2630   24.9142 C.ar    1  UNL1        0.0692
      2 C          -9.3676  -17.2581   26.4089 C.ar    1  UNL1        0.0059
      3 C          -8.3530  -16.5348   27.2441 C.ar    1  UNL1        0.0023
      4 C          -7.2134  -15.8164   26.5844 C.ar    1  UNL1        0.0284
      5 C          -6.0692  -15.0233   27.1427 C.ar    1  UNL1        0.1078
      6 N          -5.2370  -14.5380   25.9930 N.ar    1  UNL1       -0.2076
      7 S          -5.8669  -15.0312   24.7241 S.2     1  UNL1        0.0143
      8 C          -7.0884  -15.8213   25.0896 C.ar    1  UNL1        0.0624
      9 C          -8.1030  -16.5446   24.2545 C.ar    1  UNL1        0.0603
     10 O         -10.2718  -19.4859   24.0484 O.2     1  UNL1       -0.2680
     11 C         -10.2572  -17.9864   24.0790 C.2     1  UNL1        0.2691
     12 N         -11.2571  -17.2100   23.2745 N.am    1  UNL1       -0.1896
     13 H         -11.2475  -16.2257   23.2946 H       1  UNL1        0.1828
     14 O         -12.2717  -17.9332   22.4393 O.3     1  UNL1       -0.2635
     15 C         -13.6482  -18.1831   22.9808 C.3     1  UNL1        0.2026
     16 C         -13.9046  -18.0778   24.4549 C.3     1  UNL1        0.1719
     17 O         -15.1707  -18.6329   25.0374 O.3     1  UNL1       -0.3794
     18 H         -15.9286  -18.1276   24.7042 H       1  UNL1        0.2105
     19 N          -7.9780  -16.5495   22.7598 N.pl3   1  UNL1       -0.3102
     20 H          -8.2414  -15.7553   22.2411 H       1  UNL1        0.1523
     21 C          -7.4515  -17.7647   22.0551 C.ar    1  UNL1        0.0762
     22 C          -8.3288  -18.5150   21.0973 C.ar    1  UNL1        0.0173
     23 C          -7.8024  -19.7302   20.3927 C.ar    1  UNL1        0.0072
     24 C          -6.3989  -20.1949   20.6459 C.ar    1  UNL1        0.0324
     25 I          -5.8725  -21.4099   19.9413 I       1  UNL1       -0.0424
     26 C          -5.5217  -19.4445   21.6038 C.ar    1  UNL1        0.0367
     27 C          -6.0481  -18.2294   22.3083 C.ar    1  UNL1        0.1538
     28 F          -5.1708  -17.4790   23.2662 F       1  UNL1       -0.2028
@<TRIPOS>BOND
     1    10    11    2
     2    11    12   am
     3    12    14    1
     4    14    15    1
     5    15    16    1
     6    16    17    1
     7    11     1    1
     8     1     2   ar
     9     2     3   ar
    10     3     4   ar
    11     4     5   ar
    12     5     6   ar
    13     6     7   ar
    14     7     8   ar
    15     8     9   ar
    16     9    19    1
    17    19    21    1
    18    21    22   ar
    19    22    23   ar
    20    23    24   ar
    21    24    25    1
    22    24    26   ar
    23    26    27   ar
    24    27    28    1
    25     9     1   ar
    26    27    21   ar
    27     8     4   ar
    28    12    13    1
    29    17    18    1
    30    19    20    1
@<TRIPOS>MOLECULE
*****
 28 30 0 0 0
SMALL
GASTEIGER

@<TRIPOS>ATOM
      1 C          -9.8032  -17.8664   23.1976 C.ar    1  UNL1        0.0692
      2 C         -10.9905  -17.1431   22.6348 C.ar    1  UNL1        0.0059
      3 C         -11.4251  -17.4000   21.2222 C.ar    1  UNL1        0.0023
      4 C         -10.6721  -18.3804   20.3726 C.ar    1  UNL1        0.0284
      5 C         -10.8643  -18.8362   18.9565 C.ar    1  UNL1        0.1078
      6 N          -9.7956  -19.8414   18.6441 N.ar    1  UNL1       -0.2076
      7 S          -8.9430  -20.0067   19.8672 S.2     1  UNL1        0.0143
      8 C          -9.4847  -19.1038   20.9354 C.ar    1  UNL1        0.0624
      9 C          -9.0503  -18.8468   22.3479 C.ar    1  UNL1        0.0603
     10 O          -9.3603  -18.7295   25.6077 O.2     1  UNL1       -0.2680
     11 C          -9.3686  -17.6095   24.6101 C.2     1  UNL1        0.2691
     12 N          -8.9425  -16.2324   25.0249 N.am    1  UNL1       -0.1896
     13 H          -8.9480  -15.4973   24.3701 H       1  UNL1        0.1828
     14 O          -8.5079  -15.9754   26.4374 O.3     1  UNL1       -0.2635
     15 C          -7.0473  -15.8982   26.7705 C.3     1  UNL1        0.2026
     16 C          -6.0901  -15.2662   25.8039 C.3     1  UNL1        0.1719
     17 O          -6.6116  -14.4713   24.6435 O.3     1  UNL1       -0.3794
     18 H          -7.0898  -15.0589   24.0378 H       1  UNL1        0.2105
     19 N          -7.8629  -19.5702   22.9107 N.pl3   1  UNL1       -0.3102
     20 H          -7.9942  -20.3447   23.5042 H       1  UNL1        0.1523
     21 C          -6.4753  -19.1136   22.5693 C.ar    1  UNL1        0.0762
     22 C          -5.9357  -17.8461   23.1628 C.ar    1  UNL1        0.0173
     23 C          -4.5482  -17.3895   22.8213 C.ar    1  UNL1        0.0072
     24 C          -3.7005  -18.2004   21.8865 C.ar    1  UNL1        0.0324
     25 I          -2.3131  -17.7439   21.5451 I       1  UNL1       -0.0424
     26 C          -4.2403  -19.4679   21.2931 C.ar    1  UNL1        0.0367
     27 C          -5.6277  -19.9245   21.6345 C.ar    1  UNL1        0.1538
     28 F          -6.1675  -21.1920   21.0411 F       1  UNL1       -0.2028
@<TRIPOS>BOND
     1    10    11    2
     2    11    12   am
     3    12    14    1
     4    14    15    1
     5    15    16    1
     6    16    17    1
     7    11     1    1
     8     1     2   ar
     9     2     3   ar
    10     3     4   ar
    11     4     5   ar
    12     5     6   ar
    13     6     7   ar
    14     7     8   ar
    15     8     9   ar
    16     9    19    1
    17    19    21    1
    18    21    22   ar
    19    22    23   ar
    20    23    24   ar
    21    24    25    1
    22    24    26   ar
    23    26    27   ar
    24    27    28    1
    25     9     1   ar
    26    27    21   ar
    27     8     4   ar
    28    12    13    1
    29    17    18    1
    30    19    20    1
@<TRIPOS>MOLECULE
*****
 28 30 0 0 0
SMALL
GASTEIGER

@<TRIPOS>ATOM
      1 C          -8.3132  -18.5064   21.5461 C.ar    1  UNL1        0.0692
      2 C          -9.5773  -18.2030   20.7980 C.ar    1  UNL1        0.0059
      3 C          -9.9354  -18.9974   19.5770 C.ar    1  UNL1        0.0023
      4 C          -9.0292  -20.0953   19.1042 C.ar    1  UNL1        0.0284
      5 C          -9.1190  -21.0406   17.9430 C.ar    1  UNL1        0.1078
      6 N          -7.9102  -21.9282   17.9736 N.ar    1  UNL1       -0.2076
      7 S          -7.0734  -21.5316   19.1536 S.2     1  UNL1        0.0143
      8 C          -7.7651  -20.3987   19.8524 C.ar    1  UNL1        0.0624
      9 C          -7.4070  -19.6043   21.0733 C.ar    1  UNL1        0.0603
     10 O          -6.6519  -16.9717   22.8246 O.2     1  UNL1       -0.2680
     11 C          -7.9551  -17.7120   22.7671 C.2     1  UNL1        0.2691
     12 N          -8.9004  -17.6579   23.9304 N.am    1  UNL1       -0.1896
     13 H          -9.7558  -18.1438   23.8926 H       1  UNL1        0.1828
     14 O          -8.5424  -16.8635   25.1514 O.3     1  UNL1       -0.2635
     15 C          -8.7035  -15.3721   25.1497 C.3     1  UNL1        0.2026
     16 C          -7.7724  -14.5182   24.3411 C.3     1  UNL1        0.1719
     17 O          -6.3068  -14.4970   24.6600 O.3     1  UNL1       -0.3794
     18 H          -6.1719  -14.1008   25.5350 H       1  UNL1        0.2105
     19 N          -6.1428  -19.9077   21.8215 N.pl3   1  UNL1       -0.3102
     20 H          -6.1741  -20.4552   22.6391 H       1  UNL1        0.1523
     21 C          -4.8310  -19.3770   21.3239 C.ar    1  UNL1        0.0762
     22 C          -4.4887  -19.4702   19.8664 C.ar    1  UNL1        0.0173
     23 C          -3.1768  -18.9395   19.3688 C.ar    1  UNL1        0.0072
     24 C          -2.2075  -18.3156   20.3286 C.ar    1  UNL1        0.0324
     25 I          -0.8958  -17.7849   19.8310 I       1  UNL1       -0.0424
     26 C          -2.5500  -18.2224   21.7860 C.ar    1  UNL1        0.0367
     27 C          -3.8617  -18.7531   22.2836 C.ar    1  UNL1        0.1538
     28 F          -4.2041  -18.6599   23.7411 F       1  UNL1       -0.2028
@<TRIPOS>BOND
     1    10    11    2
     2    11    12   am
     3    12    14    1
     4    14    15    1
     5    15    16    1
     6    16    17    1
     7    11     1    1
     8     1     2   ar
     9     2     3   ar
    10     3     4   ar
    11     4     5   ar
    12     5     6   ar
    13     6     7   ar
    14     7     8   ar
    15     8     9   ar
    16     9    19    1
    17    19    21    1
    18    21    22   ar
    19    22    23   ar
    20    23    24   ar
    21    24    25    1
    22    24    26   ar
    23    26    27   ar
    24    27    28    1
    25     9     1   ar
    26    27    21   ar
    27     8     4   ar
    28    12    13    1
    29    17    18    1
    30    19    20    1
@<TRIPOS>MOLECULE
*****
 28 30 0 0 0
SMALL
GASTEIGER

@<TRIPOS>ATOM
      1 C          -9.1585  -18.8392   20.4856 C.ar    1  UNL1        0.0692
      2 C         -10.0586  -18.5152   19.3304 C.ar    1  UNL1        0.0059
      3 C         -11.4801  -18.1056   19.5790 C.ar    1  UNL1        0.0023
      4 C         -12.0013  -18.0199   20.9829 C.ar    1  UNL1        0.0284
      5 C         -13.3461  -17.6479   21.5333 C.ar    1  UNL1        0.1078
      6 N         -13.2771  -17.7419   23.0287 N.ar    1  UNL1       -0.2076
      7 S         -11.8895  -18.1721   23.4026 S.2     1  UNL1        0.0143
      8 C         -11.1010  -18.3439   22.1382 C.ar    1  UNL1        0.0624
      9 C          -9.6797  -18.7536   21.8895 C.ar    1  UNL1        0.0603
     10 O          -7.4256  -20.6495   19.8000 O.2     1  UNL1       -0.2680
     11 C          -7.7370  -19.2488   20.2370 C.2     1  UNL1        0.2691
     12 N          -6.6271  -18.2577   20.4254 N.am    1  UNL1       -0.1896
     13 H          -6.8315  -17.3383   20.7122 H       1  UNL1        0.1828
     14 O          -5.2056  -18.6672   20.1768 O.3     1  UNL1       -0.2635
     15 C          -4.3784  -19.2235   21.2977 C.3     1  UNL1        0.2026
     16 C          -4.1396  -18.4044   22.5315 C.3     1  UNL1        0.1719
     17 O          -2.7379  -18.0904   22.9635 O.3     1  UNL1       -0.3794
     18 H          -2.2883  -18.9098   23.2231 H       1  UNL1        0.2105
     19 N          -8.7794  -19.0776   23.0448 N.pl3   1  UNL1       -0.3102
     20 H          -8.3113  -19.9431   23.0764 H       1  UNL1        0.1523
     21 C          -8.5925  -18.0828   24.1519 C.ar    1  UNL1        0.0762
     22 C          -7.8067  -16.8285   23.9083 C.ar    1  UNL1        0.0173
     23 C          -7.6198  -15.8338   25.0154 C.ar    1  UNL1        0.0072
     24 C          -8.2186  -16.0934   26.3660 C.ar    1  UNL1        0.0324
     25 I          -8.0317  -15.0988   27.4731 I       1  UNL1       -0.0424
     26 C          -9.0043  -17.3478   26.6095 C.ar    1  UNL1        0.0367
     27 C          -9.1912  -18.3424   25.5024 C.ar    1  UNL1        0.1538
     28 F          -9.9770  -19.5968   25.7460 F       1  UNL1       -0.2028
@<TRIPOS>BOND
     1    10    11    2
     2    11    12   am
     3    12    14    1
     4    14    15    1
     5    15    16    1
     6    16    17    1
     7    11     1    1
     8     1     2   ar
     9     2     3   ar
    10     3     4   ar
    11     4     5   ar
    12     5     6   ar
    13     6     7   ar
    14     7     8   ar
    15     8     9   ar
    16     9    19    1
    17    19    21    1
    18    21    22   ar
    19    22    23   ar
    20    23    24   ar
    21    24    25    1
    22    24    26   ar
    23    26    27   ar
    24    27    28    1
    25     9     1   ar
    26    27    21   ar
    27     8     4   ar
    28    12    13    1
    29    17    18    1
    30    19    20    1
