@<TRIPOS>MOLECULE
*****
 22 25 0 0 0
SMALL
GASTEIGER

@<TRIPOS>ATOM
      1 O          -8.5802  -19.2582   18.8702 O.2     1  UNL1       -0.2448
      2 C          -7.8346  -19.0707   20.1582 C.2     1  UNL1        0.3428
      3 C          -8.5151  -19.3475   21.4659 C.2     1  UNL1        0.0958
      4 C          -7.9559  -20.1596   22.5963 C.2     1  UNL1        0.1049
      5 N          -8.9695  -20.1748   23.7019 N.2     1  UNL1       -0.2476
      6 C         -10.1552  -19.3721   23.2548 C.2     1  UNL1        0.0641
      7 C         -11.4542  -19.0407   23.9276 C.3     1  UNL1        0.0788
      8 C         -12.4725  -18.1980   23.2183 C.2     1  UNL1        0.0183
      9 BR        -13.7716  -17.8666   23.8911 Br      1  UNL1       -0.0533
     10 C         -12.1917  -17.6867   21.8364 C.2     1  UNL1        0.0028
     11 C         -10.8926  -18.0181   21.1637 C.2     1  UNL1        0.0016
     12 C          -9.8744  -18.8608   21.8729 C.2     1  UNL1        0.0217
     13 O          -6.4084  -18.6063   20.1383 O.3     1  UNL1       -0.4454
     14 C          -5.2937  -19.6091   20.0929 C.3     1  UNL1        0.2087
     15 C          -3.8793  -19.1694   20.3295 C.3     1  UNL1        0.0445
     16 C          -3.2967  -19.2282   21.7105 C.3     1  UNL1        0.0210
     17 C          -1.8823  -18.7885   21.9471 C.3     1  UNL1        0.0722
     18 N          -1.0504  -18.2899   20.8028 N.3     1  UNL1       -0.2727
     19 C          -1.6330  -18.2311   19.4218 C.3     1  UNL1        0.0722
     20 C          -3.0475  -18.6708   19.1852 C.3     1  UNL1        0.0210
     21 C          -1.8206  -18.5200   20.6241 C.3     1  UNL1        0.0722
     22 C          -3.0995  -18.9176   20.4101 C.3     1  UNL1        0.0210
@<TRIPOS>BOND
     1     1     2    2
     2     2    13    1
     3    13    14    1
     4    14    15    1
     5    15    16    1
     6    16    17    1
     7    17    18    1
     8    18    19    1
     9    19    20    1
    10    18    21    1
    11    21    22    1
    12     2     3    1
    13     3     4    2
    14     4     5    1
    15     5     6    2
    16     6     7    1
    17     7     8    1
    18     8     9    1
    19     8    10    2
    20    10    11    1
    21    11    12    2
    22    20    15    1
    23    12     3    1
    24    22    15    1
    25    12     6    1
@<TRIPOS>MOLECULE
*****
 22 25 0 0 0
SMALL
GASTEIGER

@<TRIPOS>ATOM
      1 O          -6.2223  -18.5465   19.9623 O.2     1  UNL1       -0.2448
      2 C          -6.3065  -18.7920   21.4396 C.2     1  UNL1        0.3428
      3 C          -7.2318  -17.9682   22.2854 C.2     1  UNL1        0.0958
      4 C          -6.8325  -16.8306   23.1779 C.2     1  UNL1        0.1049
      5 N          -8.0727  -16.2968   23.8312 N.2     1  UNL1       -0.2476
      6 C          -9.2385  -17.1043   23.3424 C.2     1  UNL1        0.0641
      7 C         -10.7061  -17.0325   23.6438 C.3     1  UNL1        0.0788
      8 C         -11.6540  -17.9936   22.9899 C.2     1  UNL1        0.0183
      9 BR        -13.1217  -17.9218   23.2913 Br      1  UNL1       -0.0533
     10 C         -11.1342  -19.0266   22.0345 C.2     1  UNL1        0.0028
     11 C          -9.6666  -19.0985   21.7331 C.2     1  UNL1        0.0016
     12 C          -8.7187  -18.1373   22.3870 C.2     1  UNL1        0.0217
     13 O          -5.4654  -19.8614   22.0713 O.3     1  UNL1       -0.4454
     14 C          -4.1451  -19.5095   22.6902 C.3     1  UNL1        0.2087
     15 C          -3.1869  -18.6185   21.9568 C.3     1  UNL1        0.0445
     16 C          -2.9800  -17.2041   22.4114 C.3     1  UNL1        0.0210
     17 C          -2.0217  -16.3132   21.6779 C.3     1  UNL1        0.0722
     18 N          -1.2703  -16.8366   20.4898 N.3     1  UNL1       -0.2727
     19 C          -1.4772  -18.2510   20.0352 C.3     1  UNL1        0.0722
     20 C          -2.4355  -19.1420   20.7687 C.3     1  UNL1        0.0210
     21 C          -1.7848  -17.3623   20.8598 C.3     1  UNL1        0.0722
     22 C          -2.6512  -18.1680   21.5230 C.3     1  UNL1        0.0210
@<TRIPOS>BOND
     1     1     2    2
     2     2    13    1
     3    13    14    1
     4    14    15    1
     5    15    16    1
     6    16    17    1
     7    17    18    1
     8    18    19    1
     9    19    20    1
    10    18    21    1
    11    21    22    1
    12     2     3    1
    13     3     4    2
    14     4     5    1
    15     5     6    2
    16     6     7    1
    17     7     8    1
    18     8     9    1
    19     8    10    2
    20    10    11    1
    21    11    12    2
    22    20    15    1
    23    12     3    1
    24    22    15    1
    25    12     6    1
@<TRIPOS>MOLECULE
*****
 22 25 0 0 0
SMALL
GASTEIGER

@<TRIPOS>ATOM
      1 O          -9.3504  -20.1353   23.7020 O.2     1  UNL1       -0.2448
      2 C          -8.6432  -18.9363   23.1434 C.2     1  UNL1        0.3428
      3 C          -7.9510  -19.0249   21.8156 C.2     1  UNL1        0.0958
      4 C          -8.6174  -19.2074   20.4843 C.2     1  UNL1        0.1049
      5 N          -7.5490  -19.2418   19.4320 N.2     1  UNL1       -0.2476
      6 C          -6.2223  -19.0805   20.1129 C.2     1  UNL1        0.0641
      7 C          -4.8201  -19.0384   19.5819 C.3     1  UNL1        0.0788
      8 C          -3.6663  -18.8623   20.5241 C.2     1  UNL1        0.0183
      9 BR         -2.2640  -18.8201   19.9931 Br      1  UNL1       -0.0533
     10 C          -3.9147  -18.7282   21.9973 C.2     1  UNL1        0.0028
     11 C          -5.3169  -18.7703   22.5283 C.2     1  UNL1        0.0016
     12 C          -6.4707  -18.9465   21.5861 C.2     1  UNL1        0.0217
     13 O          -8.6283  -17.6485   23.9126 O.3     1  UNL1       -0.4454
     14 C          -9.8010  -16.7163   23.8372 C.3     1  UNL1        0.2087
     15 C         -10.7292  -16.7724   22.6603 C.3     1  UNL1        0.0445
     16 C         -10.3881  -16.0334   21.4002 C.3     1  UNL1        0.0210
     17 C         -11.3163  -16.0895   20.2233 C.3     1  UNL1        0.0722
     18 N         -12.5856  -16.8846   20.3062 N.3     1  UNL1       -0.2727
     19 C         -12.9267  -17.6235   21.5662 C.3     1  UNL1        0.0722
     20 C         -11.9984  -17.5674   22.7433 C.3     1  UNL1        0.0210
     21 C         -12.1083  -16.8836   20.9772 C.3     1  UNL1        0.0722
     22 C         -11.2691  -16.8329   22.0415 C.3     1  UNL1        0.0210
@<TRIPOS>BOND
     1     1     2    2
     2     2    13    1
     3    13    14    1
     4    14    15    1
     5    15    16    1
     6    16    17    1
     7    17    18    1
     8    18    19    1
     9    19    20    1
    10    18    21    1
    11    21    22    1
    12     2     3    1
    13     3     4    2
    14     4     5    1
    15     5     6    2
    16     6     7    1
    17     7     8    1
    18     8     9    1
    19     8    10    2
    20    10    11    1
    21    11    12    2
    22    20    15    1
    23    12     3    1
    24    22    15    1
    25    12     6    1
@<TRIPOS>MOLECULE
*****
 22 25 0 0 0
SMALL
GASTEIGER

@<TRIPOS>ATOM
      1 O          -8.1096  -19.2185   19.9464 O.2     1  UNL1       -0.2448
      2 C          -8.5948  -18.2478   20.9818 C.2     1  UNL1        0.3428
      3 C         -10.0571  -17.9298   21.0850 C.2     1  UNL1        0.0958
      4 C         -10.9076  -17.3313   20.0041 C.2     1  UNL1        0.1049
      5 N         -12.3017  -17.1861   20.5383 N.2     1  UNL1       -0.2476
      6 C         -12.3128  -17.6949   21.9494 C.2     1  UNL1        0.0641
      7 C         -13.4069  -17.7991   22.9702 C.3     1  UNL1        0.0788
      8 C         -13.1137  -18.3629   24.3289 C.2     1  UNL1        0.0183
      9 BR        -14.2078  -18.4671   25.3498 Br      1  UNL1       -0.0533
     10 C         -11.7264  -18.8226   24.6667 C.2     1  UNL1        0.0028
     11 C         -10.6323  -18.7184   23.6459 C.2     1  UNL1        0.0016
     12 C         -10.9256  -18.1546   22.2872 C.2     1  UNL1        0.0217
     13 O          -7.6177  -17.5951   21.9142 O.3     1  UNL1       -0.4454
     14 C          -7.9274  -16.2514   22.5047 C.3     1  UNL1        0.2087
     15 C          -7.5833  -15.9639   23.9361 C.3     1  UNL1        0.0445
     16 C          -6.2037  -15.4987   24.2970 C.3     1  UNL1        0.0210
     17 C          -5.8596  -15.2113   25.7284 C.3     1  UNL1        0.0722
     18 N          -6.8952  -15.3891   26.7990 N.3     1  UNL1       -0.2727
     19 C          -8.2748  -15.8543   26.4381 C.3     1  UNL1        0.0722
     20 C          -8.6189  -16.1417   25.0066 C.3     1  UNL1        0.0210
     21 C          -7.1305  -15.5590   26.0285 C.3     1  UNL1        0.0722
     22 C          -7.4417  -15.8190   24.7342 C.3     1  UNL1        0.0210
@<TRIPOS>BOND
     1     1     2    2
     2     2    13    1
     3    13    14    1
     4    14    15    1
     5    15    16    1
     6    16    17    1
     7    17    18    1
     8    18    19    1
     9    19    20    1
    10    18    21    1
    11    21    22    1
    12     2     3    1
    13     3     4    2
    14     4     5    1
    15     5     6    2
    16     6     7    1
    17     7     8    1
    18     8     9    1
    19     8    10    2
    20    10    11    1
    21    11    12    2
    22    20    15    1
    23    12     3    1
    24    22    15    1
    25    12     6    1
@<TRIPOS>MOLECULE
*****
 22 25 0 0 0
SMALL
GASTEIGER

@<TRIPOS>ATOM
      1 O         -12.5759  -18.3099   23.5330 O.2     1  UNL1       -0.2448
      2 C         -11.1195  -18.0392   23.2977 C.2     1  UNL1        0.3428
      3 C         -10.5061  -18.3431   21.9630 C.2     1  UNL1        0.0958
      4 C         -11.1383  -18.0963   20.6254 C.2     1  UNL1        0.1049
      5 N         -10.1757  -18.5479   19.5674 N.2     1  UNL1       -0.2476
      6 C          -8.9485  -19.0738   20.2511 C.2     1  UNL1        0.0641
      7 C          -7.6715  -19.6515   19.7168 C.3     1  UNL1        0.0788
      8 C          -6.5987  -20.1026   20.6631 C.2     1  UNL1        0.0183
      9 BR         -5.3217  -20.6804   20.1289 Br      1  UNL1       -0.0533
     10 C          -6.8029  -19.9760   22.1438 C.2     1  UNL1        0.0028
     11 C          -8.0799  -19.3983   22.6781 C.2     1  UNL1        0.0016
     12 C          -9.1527  -18.9472   21.7318 C.2     1  UNL1        0.0217
     13 O         -10.2763  -17.4644   24.3973 O.3     1  UNL1       -0.4454
     14 C          -9.5676  -16.1581   24.1942 C.3     1  UNL1        0.2087
     15 C          -8.2848  -15.8801   24.9201 C.3     1  UNL1        0.0445
     16 C          -8.2832  -15.7403   26.4136 C.3     1  UNL1        0.0210
     17 C          -7.0003  -15.4623   27.1394 C.3     1  UNL1        0.0722
     18 N          -5.7189  -15.3241   26.3719 N.3     1  UNL1       -0.2727
     19 C          -5.7205  -15.4639   24.8784 C.3     1  UNL1        0.0722
     20 C          -7.0035  -15.7419   24.1525 C.3     1  UNL1        0.0210
     21 C          -6.3970  -15.4765   25.9303 C.3     1  UNL1        0.0722
     22 C          -7.5570  -15.7278   25.2738 C.3     1  UNL1        0.0210
@<TRIPOS>BOND
     1     1     2    2
     2     2    13    1
     3    13    14    1
     4    14    15    1
     5    15    16    1
     6    16    17    1
     7    17    18    1
     8    18    19    1
     9    19    20    1
    10    18    21    1
    11    21    22    1
    12     2     3    1
    13     3     4    2
    14     4     5    1
    15     5     6    2
    16     6     7    1
    17     7     8    1
    18     8     9    1
    19     8    10    2
    20    10    11    1
    21    11    12    2
    22    20    15    1
    23    12     3    1
    24    22    15    1
    25    12     6    1
@<TRIPOS>MOLECULE
*****
 22 25 0 0 0
SMALL
GASTEIGER

@<TRIPOS>ATOM
      1 O          -6.0844  -18.1611   22.0036 O.2     1  UNL1       -0.2448
      2 C          -6.7545  -19.3469   21.3755 C.2     1  UNL1        0.3428
      3 C          -8.1809  -19.2491   20.9215 C.2     1  UNL1        0.0958
      4 C          -8.6839  -19.5096   19.5326 C.2     1  UNL1        0.1049
      5 N         -10.1684  -19.2952   19.5295 N.2     1  UNL1       -0.2476
      6 C         -10.5829  -18.9021   20.9165 C.2     1  UNL1        0.0641
      7 C         -11.9202  -18.5664   21.5071 C.3     1  UNL1        0.0788
      8 C         -12.0291  -18.2022   22.9582 C.2     1  UNL1        0.0183
      9 BR        -13.3664  -17.8665   23.5489 Br      1  UNL1       -0.0533
     10 C         -10.8007  -18.1738   23.8185 C.2     1  UNL1        0.0028
     11 C          -9.4634  -18.5095   23.2278 C.2     1  UNL1        0.0016
     12 C          -9.3545  -18.8736   21.7768 C.2     1  UNL1        0.0217
     13 O          -5.9984  -20.6307   21.2014 O.3     1  UNL1       -0.4454
     14 C          -4.8503  -20.7002   20.2385 C.3     1  UNL1        0.2087
     15 C          -3.7038  -19.7418   20.3681 C.3     1  UNL1        0.0445
     16 C          -3.3480  -18.8388   19.2244 C.3     1  UNL1        0.0210
     17 C          -2.2014  -17.8805   19.3541 C.3     1  UNL1        0.0722
     18 N          -1.4105  -17.8250   20.6275 N.3     1  UNL1       -0.2727
     19 C          -1.7663  -18.7280   21.7712 C.3     1  UNL1        0.0722
     20 C          -2.9129  -19.6865   21.6415 C.3     1  UNL1        0.0210
     21 C          -2.0303  -18.3666   20.6033 C.3     1  UNL1        0.0722
     22 C          -3.0671  -19.2332   20.4862 C.3     1  UNL1        0.0210
@<TRIPOS>BOND
     1     1     2    2
     2     2    13    1
     3    13    14    1
     4    14    15    1
     5    15    16    1
     6    16    17    1
     7    17    18    1
     8    18    19    1
     9    19    20    1
    10    18    21    1
    11    21    22    1
    12     2     3    1
    13     3     4    2
    14     4     5    1
    15     5     6    2
    16     6     7    1
    17     7     8    1
    18     8     9    1
    19     8    10    2
    20    10    11    1
    21    11    12    2
    22    20    15    1
    23    12     3    1
    24    22    15    1
    25    12     6    1
@<TRIPOS>MOLECULE
*****
 22 25 0 0 0
SMALL
GASTEIGER

@<TRIPOS>ATOM
      1 O          -9.5983  -18.7171   23.8923 O.2     1  UNL1       -0.2448
      2 C          -8.9903  -17.9129   22.7817 C.2     1  UNL1        0.3428
      3 C          -8.1616  -18.5910   21.7312 C.2     1  UNL1        0.0958
      4 C          -8.6794  -19.2336   20.4786 C.2     1  UNL1        0.1049
      5 N          -7.5074  -19.7854   19.7223 N.2     1  UNL1       -0.2476
      6 C          -6.2654  -19.4838   20.5074 C.2     1  UNL1        0.0641
      7 C          -4.8185  -19.7860   20.2522 C.3     1  UNL1        0.0788
      8 C          -3.7760  -19.3500   21.2386 C.2     1  UNL1        0.0183
      9 BR         -2.3290  -19.6522   20.9833 Br      1  UNL1       -0.0533
     10 C          -4.1803  -18.6119   22.4802 C.2     1  UNL1        0.0028
     11 C          -5.6272  -18.3097   22.7354 C.2     1  UNL1        0.0016
     12 C          -6.6697  -18.7457   21.7491 C.2     1  UNL1        0.0217
     13 O          -9.2110  -16.4304   22.7215 O.3     1  UNL1       -0.4454
     14 C          -8.1064  -15.4914   23.1064 C.3     1  UNL1        0.2087
     15 C          -7.5882  -15.4800   24.5139 C.3     1  UNL1        0.0445
     16 C          -6.1131  -15.3861   24.7694 C.3     1  UNL1        0.0210
     17 C          -5.5950  -15.3748   26.1770 C.3     1  UNL1        0.0722
     18 N          -6.5519  -15.4573   27.3293 N.3     1  UNL1       -0.2727
     19 C          -8.0270  -15.5512   27.0738 C.3     1  UNL1        0.0722
     20 C          -8.5452  -15.5625   25.6661 C.3     1  UNL1        0.0210
     21 C          -6.8830  -15.4669   26.5754 C.3     1  UNL1        0.0722
     22 C          -7.3516  -15.4772   25.3026 C.3     1  UNL1        0.0210
@<TRIPOS>BOND
     1     1     2    2
     2     2    13    1
     3    13    14    1
     4    14    15    1
     5    15    16    1
     6    16    17    1
     7    17    18    1
     8    18    19    1
     9    19    20    1
    10    18    21    1
    11    21    22    1
    12     2     3    1
    13     3     4    2
    14     4     5    1
    15     5     6    2
    16     6     7    1
    17     7     8    1
    18     8     9    1
    19     8    10    2
    20    10    11    1
    21    11    12    2
    22    20    15    1
    23    12     3    1
    24    22    15    1
    25    12     6    1
@<TRIPOS>MOLECULE
*****
 22 25 0 0 0
SMALL
GASTEIGER

@<TRIPOS>ATOM
      1 O         -10.4867  -18.0772   19.9012 O.2     1  UNL1       -0.2448
      2 C          -9.3658  -18.5040   20.8019 C.2     1  UNL1        0.3428
      3 C          -9.6082  -18.6731   22.2725 C.2     1  UNL1        0.0958
      4 C         -10.3725  -19.7912   22.9173 C.2     1  UNL1        0.1049
      5 N         -10.3655  -19.5629   24.3997 N.2     1  UNL1       -0.2476
      6 C          -9.5969  -18.3037   24.6713 C.2     1  UNL1        0.0641
      7 C          -9.2628  -17.5868   25.9458 C.3     1  UNL1        0.0788
      8 C          -8.4607  -16.3200   25.9055 C.2     1  UNL1        0.0183
      9 BR         -8.1265  -15.6031   27.1801 Br      1  UNL1       -0.0533
     10 C          -7.9926  -15.7701   24.5908 C.2     1  UNL1        0.0028
     11 C          -8.3268  -16.4869   23.3163 C.2     1  UNL1        0.0016
     12 C          -9.1289  -17.7538   23.3565 C.2     1  UNL1        0.0217
     13 O          -8.0024  -18.7617   20.2320 O.3     1  UNL1       -0.4454
     14 C          -7.1853  -19.9151   20.7341 C.3     1  UNL1        0.2087
     15 C          -5.7457  -19.7104   21.1020 C.3     1  UNL1        0.0445
     16 C          -5.3897  -18.9368   22.3368 C.3     1  UNL1        0.0210
     17 C          -3.9499  -18.7322   22.7046 C.3     1  UNL1        0.0722
     18 N          -2.8661  -19.3011   21.8375 N.3     1  UNL1       -0.2727
     19 C          -3.2221  -20.0747   20.6027 C.3     1  UNL1        0.0722
     20 C          -4.6619  -20.2793   20.2349 C.3     1  UNL1        0.0210
     21 C          -3.6409  -19.4393   21.5952 C.3     1  UNL1        0.0722
     22 C          -4.9427  -19.6244   21.2626 C.3     1  UNL1        0.0210
@<TRIPOS>BOND
     1     1     2    2
     2     2    13    1
     3    13    14    1
     4    14    15    1
     5    15    16    1
     6    16    17    1
     7    17    18    1
     8    18    19    1
     9    19    20    1
    10    18    21    1
    11    21    22    1
    12     2     3    1
    13     3     4    2
    14     4     5    1
    15     5     6    2
    16     6     7    1
    17     7     8    1
    18     8     9    1
    19     8    10    2
    20    10    11    1
    21    11    12    2
    22    20    15    1
    23    12     3    1
    24    22    15    1
    25    12     6    1
@<TRIPOS>MOLECULE
*****
 22 25 0 0 0
SMALL
GASTEIGER

@<TRIPOS>ATOM
      1 O          -7.7625  -16.8740   21.4130 O.2     1  UNL1       -0.2448
      2 C          -8.7505  -17.9903   21.2473 C.2     1  UNL1        0.3428
      3 C         -10.2215  -17.7080   21.3268 C.2     1  UNL1        0.0958
      4 C         -11.0600  -17.0887   20.2482 C.2     1  UNL1        0.1049
      5 N         -12.4690  -16.9934   20.7537 N.2     1  UNL1       -0.2476
      6 C         -12.5014  -17.5538   22.1447 C.2     1  UNL1        0.0641
      7 C         -13.6162  -17.7189   23.1346 C.3     1  UNL1        0.0788
      8 C         -13.3420  -18.3257   24.4786 C.2     1  UNL1        0.0183
      9 BR        -14.4568  -18.4909   25.4686 Br      1  UNL1       -0.0533
     10 C         -11.9529  -18.7674   24.8328 C.2     1  UNL1        0.0028
     11 C         -10.8381  -18.6022   23.8430 C.2     1  UNL1        0.0016
     12 C         -11.1123  -17.9954   22.4989 C.2     1  UNL1        0.0217
     13 O          -8.2674  -19.3892   21.0019 O.3     1  UNL1       -0.4454
     14 C          -7.2230  -19.9895   21.8957 C.3     1  UNL1        0.2087
     15 C          -5.7731  -19.8953   21.5232 C.3     1  UNL1        0.0445
     16 C          -4.8406  -19.0553   22.3447 C.3     1  UNL1        0.0210
     17 C          -3.3907  -18.9611   21.9722 C.3     1  UNL1        0.0722
     18 N          -2.8731  -19.7070   20.7780 N.3     1  UNL1       -0.2727
     19 C          -3.8056  -20.5470   19.9565 C.3     1  UNL1        0.0722
     20 C          -5.2556  -20.6411   20.3291 C.3     1  UNL1        0.0210
     21 C          -3.6756  -19.7893   20.9431 C.3     1  UNL1        0.0722
     22 C          -4.9867  -19.8745   21.2799 C.3     1  UNL1        0.0210
@<TRIPOS>BOND
     1     1     2    2
     2     2    13    1
     3    13    14    1
     4    14    15    1
     5    15    16    1
     6    16    17    1
     7    17    18    1
     8    18    19    1
     9    19    20    1
    10    18    21    1
    11    21    22    1
    12     2     3    1
    13     3     4    2
    14     4     5    1
    15     5     6    2
    16     6     7    1
    17     7     8    1
    18     8     9    1
    19     8    10    2
    20    10    11    1
    21    11    12    2
    22    20    15    1
    23    12     3    1
    24    22    15    1
    25    12     6    1
