@<TRIPOS>MOLECULE
*****
 41 44 0 0 0
SMALL
GASTEIGER

@<TRIPOS>ATOM
      1 C           0.6520    1.9858   27.0531 C.ar    1  UNL1        0.0053
      2 C          -0.5801    2.3463   26.2774 C.ar    1  UNL1        0.0033
      3 C          -0.6391    2.0883   24.8009 C.ar    1  UNL1        0.0382
      4 C           0.5342    1.4699   24.1002 C.ar    1  UNL1        0.1529
      5 C           1.7664    1.1094   24.8759 C.ar    1  UNL1        0.0882
      6 C           1.8253    1.3674   26.3524 C.ar    1  UNL1        0.0181
      7 N           2.9396    0.4910   24.1752 N.am    1  UNL1       -0.2512
      8 C           2.8807    0.2331   22.6987 C.2     1  UNL1        0.2698
      9 O           4.0540   -0.3853   21.9980 O.2     1  UNL1       -0.2704
     10 C           1.6485    0.5936   21.9229 C.3     1  UNL1        0.2219
     11 C           0.7107    0.7593   20.7641 C.3     1  UNL1        0.0580
     12 O           0.4752    1.2120   22.6237 O.3     1  UNL1       -0.4685
     13 C           0.3559    1.1530   29.4962 C.ar    1  UNL1        0.0645
     14 N           0.4148    1.4109   30.9727 N.ar    1  UNL1       -0.2183
     15 C           0.8289    2.7595   31.4826 C.ar    1  UNL1        0.2145
     16 N           0.8878    3.0173   32.9591 N.pl3   1  UNL1       -0.3274
     17 N           1.1840    3.8501   30.5160 N.ar    1  UNL1       -0.1995
     18 C           1.1250    3.5922   29.0395 C.ar    1  UNL1        0.1293
     19 N           1.4801    4.6829   28.0729 N.pl3   1  UNL1       -0.3425
     20 C           0.7110    2.2437   28.5296 C.ar    1  UNL1        0.0449
     21 H           0.6547    2.3015   33.5935 H       1  UNL1        0.1452
     22 H           1.1596    3.9024   33.2938 H       1  UNL1        0.1452
     23 H           1.7519    5.5680   28.4075 H       1  UNL1        0.1437
     24 H           1.4414    4.5136   27.1038 H       1  UNL1        0.1437
     25 C          -1.5132   -0.5203   28.8205 C.3     1  UNL1        0.0067
     26 C          -0.0582   -0.1956   28.9863 C.3     1  UNL1        0.0460
     27 C           2.4960    0.0328   20.8197 C.ar    1  UNL1        0.0516
     28 C           2.4447   -1.4331   20.5057 C.ar    1  UNL1        0.0314
     29 C           3.2923   -1.9939   19.4025 C.ar    1  UNL1        0.1401
     30 F           3.2409   -3.4598   19.0885 F       1  UNL1       -0.2042
     31 C           4.1912   -1.0889   18.6133 C.ar    1  UNL1        0.0319
     32 C           4.2425    0.3769   18.9273 C.ar    1  UNL1        0.0317
     33 C           3.3950    0.9378   20.0305 C.ar    1  UNL1        0.1400
     34 F           3.4463    2.4037   20.3445 F       1  UNL1       -0.2044
     35 C           4.1718    0.1306   24.9509 C.3     1  UNL1        0.1196
     36 C           4.3664   -1.2743   25.4391 C.3     1  UNL1        0.1113
     37 N           4.5143   -2.3967   24.4549 N.am    1  UNL1       -0.3026
     38 C           5.8660   -2.7329   23.8984 C.2     1  UNL1        0.2230
     39 C           6.0140   -3.8552   22.9142 C.3     1  UNL1        0.0946
     40 O           7.0699   -1.9469   24.3261 O.2     1  UNL1       -0.2751
     41 H           3.7242   -2.9126   24.1742 H       1  UNL1        0.1495
@<TRIPOS>BOND
     1    25    26    1
     2    26    13    1
     3    13    14   ar
     4    14    15   ar
     5    15    16    1
     6    15    17   ar
     7    17    18   ar
     8    18    19    1
     9    18    20   ar
    10    20     1    1
    11     1     2   ar
    12     2     3   ar
    13     3     4   ar
    14     4     5   ar
    15     5     6   ar
    16     5     7    1
    17     7    35    1
    18    35    36    1
    19    36    37    1
    20    37    38   am
    21    38    39    1
    22    38    40    2
    23     7     8   am
    24     8     9    2
    25     8    10    1
    26    10    11    1
    27    10    27    1
    28    27    28   ar
    29    28    29   ar
    30    29    30    1
    31    29    31   ar
    32    31    32   ar
    33    32    33   ar
    34    33    34    1
    35    10    12    1
    36    20    13   ar
    37     6     1   ar
    38    33    27   ar
    39    12     4    1
    40    16    21    1
    41    16    22    1
    42    19    23    1
    43    19    24    1
    44    37    41    1
@<TRIPOS>MOLECULE
*****
 41 44 0 0 0
SMALL
GASTEIGER

@<TRIPOS>ATOM
      1 C           0.2591    2.4680   26.9742 C.ar    1  UNL1        0.0053
      2 C           1.2368    1.8437   26.0232 C.ar    1  UNL1        0.0033
      3 C           1.0007    1.9250   24.5442 C.ar    1  UNL1        0.0382
      4 C          -0.2130    2.6307   24.0161 C.ar    1  UNL1        0.1529
      5 C          -1.1907    3.2551   24.9671 C.ar    1  UNL1        0.0882
      6 C          -0.9546    3.1737   26.4461 C.ar    1  UNL1        0.0181
      7 N          -2.4044    3.9608   24.4390 N.am    1  UNL1       -0.2512
      8 C          -2.6405    4.0421   22.9600 C.2     1  UNL1        0.2698
      9 O          -3.8542    4.7479   22.4319 O.2     1  UNL1       -0.2704
     10 C          -1.6628    3.4178   22.0089 C.3     1  UNL1        0.2219
     11 C          -1.0304    2.9865   20.7190 C.3     1  UNL1        0.0580
     12 O          -0.4491    2.7121   22.5370 O.3     1  UNL1       -0.4685
     13 C           0.1277    1.1411   29.2041 C.ar    1  UNL1        0.0645
     14 N           0.3637    1.0597   30.6831 N.ar    1  UNL1       -0.2183
     15 C           0.9673    2.2239   31.4115 C.ar    1  UNL1        0.2145
     16 N           1.2033    2.1425   32.8906 N.pl3   1  UNL1       -0.3274
     17 N           1.3348    3.4694   30.6608 N.ar    1  UNL1       -0.1995
     18 C           1.0987    3.5508   29.1817 C.ar    1  UNL1        0.1293
     19 N           1.4662    4.7963   28.4309 N.pl3   1  UNL1       -0.3425
     20 C           0.4952    2.3866   28.4533 C.ar    1  UNL1        0.0449
     21 H           0.9621    1.3250   33.3833 H       1  UNL1        0.1452
     22 H           1.5994    2.9066   33.3686 H       1  UNL1        0.1452
     23 H           1.8623    5.5604   28.9090 H       1  UNL1        0.1437
     24 H           1.3113    4.8497   27.4602 H       1  UNL1        0.1437
     25 C          -1.7491   -0.6406   28.9732 C.3     1  UNL1        0.0067
     26 C          -0.4758   -0.0231   28.4757 C.3     1  UNL1        0.0460
     27 C          -2.6569    3.9737   21.0329 C.ar    1  UNL1        0.0516
     28 C          -3.8104    3.1311   20.5752 C.ar    1  UNL1        0.0314
     29 C          -4.8045    3.6871   19.5992 C.ar    1  UNL1        0.1401
     30 F          -5.9580    2.8446   19.1415 F       1  UNL1       -0.2042
     31 C          -4.6451    5.0856   19.0808 C.ar    1  UNL1        0.0319
     32 C          -3.4916    5.9281   19.5384 C.ar    1  UNL1        0.0317
     33 C          -2.4975    5.3722   20.5145 C.ar    1  UNL1        0.1400
     34 F          -1.3439    6.2148   20.9721 F       1  UNL1       -0.2044
     35 C          -3.3820    4.5851   25.3900 C.3     1  UNL1        0.1196
     36 C          -4.6556    3.8706   25.7327 C.3     1  UNL1        0.1113
     37 N          -5.6887    3.6289   24.6723 N.am    1  UNL1       -0.3026
     38 C          -6.7690    4.6416   24.4329 C.2     1  UNL1        0.2230
     39 C          -7.8020    4.3999   23.3726 C.3     1  UNL1        0.0946
     40 O          -6.8162    5.8962   25.2540 O.2     1  UNL1       -0.2751
     41 H          -5.6577    2.8055   24.1335 H       1  UNL1        0.1495
@<TRIPOS>BOND
     1    25    26    1
     2    26    13    1
     3    13    14   ar
     4    14    15   ar
     5    15    16    1
     6    15    17   ar
     7    17    18   ar
     8    18    19    1
     9    18    20   ar
    10    20     1    1
    11     1     2   ar
    12     2     3   ar
    13     3     4   ar
    14     4     5   ar
    15     5     6   ar
    16     5     7    1
    17     7    35    1
    18    35    36    1
    19    36    37    1
    20    37    38   am
    21    38    39    1
    22    38    40    2
    23     7     8   am
    24     8     9    2
    25     8    10    1
    26    10    11    1
    27    10    27    1
    28    27    28   ar
    29    28    29   ar
    30    29    30    1
    31    29    31   ar
    32    31    32   ar
    33    32    33   ar
    34    33    34    1
    35    10    12    1
    36    20    13   ar
    37     6     1   ar
    38    33    27   ar
    39    12     4    1
    40    16    21    1
    41    16    22    1
    42    19    23    1
    43    19    24    1
    44    37    41    1
@<TRIPOS>MOLECULE
*****
 41 44 0 0 0
SMALL
GASTEIGER

@<TRIPOS>ATOM
      1 C           0.6889    1.9304   26.9023 C.ar    1  UNL1        0.0053
      2 C          -0.5422    2.3032   26.1307 C.ar    1  UNL1        0.0033
      3 C          -0.6053    2.0536   24.6530 C.ar    1  UNL1        0.0382
      4 C           0.5626    1.4312   23.9469 C.ar    1  UNL1        0.1529
      5 C           1.7937    1.0584   24.7185 C.ar    1  UNL1        0.0882
      6 C           1.8569    1.3080   26.1962 C.ar    1  UNL1        0.0181
      7 N           2.9616    0.4360   24.0123 N.am    1  UNL1       -0.2512
      8 C           2.8984    0.1865   22.5346 C.2     1  UNL1        0.2698
      9 O           4.0663   -0.4359   21.8285 O.2     1  UNL1       -0.2704
     10 C           1.6673    0.5593   21.7630 C.3     1  UNL1        0.2219
     11 C           0.7285    0.7374   20.6067 C.3     1  UNL1        0.0580
     12 O           0.4993    1.1816   22.4691 O.3     1  UNL1       -0.4685
     13 C           0.3263    1.1093   29.3404 C.ar    1  UNL1        0.0645
     14 N           0.3895    1.3588   30.8181 N.ar    1  UNL1       -0.2183
     15 C           0.8786    2.6791   31.3356 C.ar    1  UNL1        0.2145
     16 N           0.9418    2.9286   32.8133 N.pl3   1  UNL1       -0.3274
     17 N           1.3045    3.7498   30.3753 N.ar    1  UNL1       -0.1995
     18 C           1.2412    3.5002   28.8975 C.ar    1  UNL1        0.1293
     19 N           1.6671    4.5709   27.9372 N.pl3   1  UNL1       -0.3425
     20 C           0.7522    2.1800   28.3801 C.ar    1  UNL1        0.0449
     21 H           0.6623    2.2259   33.4436 H       1  UNL1        0.1452
     22 H           1.2628    3.7952   33.1529 H       1  UNL1        0.1452
     23 H           1.9881    5.4375   28.2767 H       1  UNL1        0.1437
     24 H           1.6256    4.4072   26.9673 H       1  UNL1        0.1437
     25 C          -1.6113   -0.5778   28.9538 C.3     1  UNL1        0.0067
     26 C          -0.1628   -0.2110   28.8229 C.3     1  UNL1        0.0460
     27 C           2.5091   -0.0013   20.6553 C.ar    1  UNL1        0.0516
     28 C           2.4851   -1.4729   20.3661 C.ar    1  UNL1        0.0314
     29 C           3.3270   -2.0334   19.2583 C.ar    1  UNL1        0.1401
     30 F           3.3030   -3.5051   18.9691 F       1  UNL1       -0.2042
     31 C           4.1930   -1.1223   18.4399 C.ar    1  UNL1        0.0319
     32 C           4.2170    0.3493   18.7291 C.ar    1  UNL1        0.0317
     33 C           3.3751    0.9099   19.8368 C.ar    1  UNL1        0.1400
     34 F           3.3992    2.3816   20.1260 F       1  UNL1       -0.2044
     35 C           4.1927    0.0633   24.7839 C.3     1  UNL1        0.1196
     36 C           4.4171   -1.3616   25.1954 C.3     1  UNL1        0.1113
     37 N           5.3414   -1.6767   26.3341 N.am    1  UNL1       -0.3026
     38 C           4.8122   -1.7308   27.7366 C.2     1  UNL1        0.2230
     39 C           5.7363   -2.0459   28.8753 C.3     1  UNL1        0.0946
     40 O           3.3588   -1.4698   28.0004 O.2     1  UNL1       -0.2751
     41 H           6.2953   -1.8480   26.1609 H       1  UNL1        0.1495
@<TRIPOS>BOND
     1    25    26    1
     2    26    13    1
     3    13    14   ar
     4    14    15   ar
     5    15    16    1
     6    15    17   ar
     7    17    18   ar
     8    18    19    1
     9    18    20   ar
    10    20     1    1
    11     1     2   ar
    12     2     3   ar
    13     3     4   ar
    14     4     5   ar
    15     5     6   ar
    16     5     7    1
    17     7    35    1
    18    35    36    1
    19    36    37    1
    20    37    38   am
    21    38    39    1
    22    38    40    2
    23     7     8   am
    24     8     9    2
    25     8    10    1
    26    10    11    1
    27    10    27    1
    28    27    28   ar
    29    28    29   ar
    30    29    30    1
    31    29    31   ar
    32    31    32   ar
    33    32    33   ar
    34    33    34    1
    35    10    12    1
    36    20    13   ar
    37     6     1   ar
    38    33    27   ar
    39    12     4    1
    40    16    21    1
    41    16    22    1
    42    19    23    1
    43    19    24    1
    44    37    41    1
@<TRIPOS>MOLECULE
*****
 41 44 0 0 0
SMALL
GASTEIGER

@<TRIPOS>ATOM
      1 C          -9.4277  -17.2498   23.5956 C.ar    1  UNL1        0.0053
      2 C          -8.8120  -16.0559   24.2630 C.ar    1  UNL1        0.0033
      3 C          -7.3589  -15.7471   24.0554 C.ar    1  UNL1        0.0382
      4 C          -6.5216  -16.6321   23.1805 C.ar    1  UNL1        0.1529
      5 C          -7.1373  -17.8260   22.5131 C.ar    1  UNL1        0.0882
      6 C          -8.5904  -18.1348   22.7206 C.ar    1  UNL1        0.0181
      7 N          -6.3000  -18.7111   21.6381 N.am    1  UNL1       -0.2512
      8 C          -4.8469  -18.4022   21.4306 C.2     1  UNL1        0.2698
      9 O          -4.0095  -19.2873   20.5557 O.2     1  UNL1       -0.2704
     10 C          -4.2311  -17.2083   22.0980 C.3     1  UNL1        0.2219
     11 C          -3.2002  -16.2002   22.5114 C.3     1  UNL1        0.0580
     12 O          -5.0684  -16.3232   22.9730 O.3     1  UNL1       -0.4685
     13 C         -11.2858  -18.7087   24.6768 C.ar    1  UNL1        0.0645
     14 N         -12.7389  -19.0176   24.8843 N.ar    1  UNL1       -0.2183
     15 C         -13.7871  -18.1764   24.2181 C.ar    1  UNL1        0.2145
     16 N         -15.2402  -18.4853   24.4257 N.pl3   1  UNL1       -0.3274
     17 N         -13.3822  -17.0264   23.3445 N.ar    1  UNL1       -0.1995
     18 C         -11.9290  -16.7175   23.1369 C.ar    1  UNL1        0.1293
     19 N         -11.5241  -15.5674   22.2632 N.pl3   1  UNL1       -0.3425
     20 C         -10.8809  -17.5586   23.8031 C.ar    1  UNL1        0.0449
     21 H         -15.5060  -19.2402   24.9991 H       1  UNL1        0.1452
     22 H         -15.9282  -17.9333   23.9885 H       1  UNL1        0.1452
     23 H         -12.2120  -15.0153   21.8260 H       1  UNL1        0.1437
     24 H         -10.5704  -15.3647   22.1270 H       1  UNL1        0.1437
     25 C          -9.7262  -20.7866   24.6654 C.3     1  UNL1        0.0067
     26 C         -10.2376  -19.5499   25.3429 C.3     1  UNL1        0.0460
     27 C          -3.0357  -17.7432   21.3667 C.ar    1  UNL1        0.0516
     28 C          -2.8618  -17.4583   19.9042 C.ar    1  UNL1        0.0314
     29 C          -1.6664  -17.9933   19.1730 C.ar    1  UNL1        0.1401
     30 F          -1.4925  -17.7084   17.7105 F       1  UNL1       -0.2042
     31 C          -0.6449  -18.8132   19.9040 C.ar    1  UNL1        0.0319
     32 C          -0.8188  -19.0980   21.3663 C.ar    1  UNL1        0.0317
     33 C          -2.0142  -18.5631   22.0977 C.ar    1  UNL1        0.1400
     34 F          -2.1882  -18.8480   23.5601 F       1  UNL1       -0.2044
     35 C          -6.9157  -19.9049   20.9707 C.3     1  UNL1        0.1196
     36 C          -7.5647  -19.7609   19.6261 C.3     1  UNL1        0.1113
     37 N          -8.6452  -18.7409   19.4203 N.am    1  UNL1       -0.3026
     38 C         -10.0438  -19.0266   19.8810 C.2     1  UNL1        0.2230
     39 C         -11.1243  -18.0067   19.6752 C.3     1  UNL1        0.0946
     40 O         -10.3619  -20.3322   20.5477 O.2     1  UNL1       -0.2751
     41 H          -8.4364  -17.8840   18.9827 H       1  UNL1        0.1495
@<TRIPOS>BOND
     1    25    26    1
     2    26    13    1
     3    13    14   ar
     4    14    15   ar
     5    15    16    1
     6    15    17   ar
     7    17    18   ar
     8    18    19    1
     9    18    20   ar
    10    20     1    1
    11     1     2   ar
    12     2     3   ar
    13     3     4   ar
    14     4     5   ar
    15     5     6   ar
    16     5     7    1
    17     7    35    1
    18    35    36    1
    19    36    37    1
    20    37    38   am
    21    38    39    1
    22    38    40    2
    23     7     8   am
    24     8     9    2
    25     8    10    1
    26    10    11    1
    27    10    27    1
    28    27    28   ar
    29    28    29   ar
    30    29    30    1
    31    29    31   ar
    32    31    32   ar
    33    32    33   ar
    34    33    34    1
    35    10    12    1
    36    20    13   ar
    37     6     1   ar
    38    33    27   ar
    39    12     4    1
    40    16    21    1
    41    16    22    1
    42    19    23    1
    43    19    24    1
    44    37    41    1
@<TRIPOS>MOLECULE
*****
 41 44 0 0 0
SMALL
GASTEIGER

@<TRIPOS>ATOM
      1 C           0.7946    1.6489   26.6482 C.ar    1  UNL1        0.0053
      2 C          -0.3908    2.0797   25.8364 C.ar    1  UNL1        0.0033
      3 C          -0.4069    1.8525   24.3538 C.ar    1  UNL1        0.0382
      4 C           0.7624    1.1946   23.6831 C.ar    1  UNL1        0.1529
      5 C           1.9478    0.7638   24.4950 C.ar    1  UNL1        0.0882
      6 C           1.9639    0.9910   25.9776 C.ar    1  UNL1        0.0181
      7 N           3.1171    0.1058   23.8243 N.am    1  UNL1       -0.2512
      8 C           3.1010   -0.1214   22.3417 C.2     1  UNL1        0.2698
      9 O           4.2703   -0.7794   21.6710 O.2     1  UNL1       -0.2704
     10 C           1.9156    0.3094   21.5297 C.3     1  UNL1        0.2219
     11 C           1.0293    0.5395   20.3416 C.3     1  UNL1        0.0580
     12 O           0.7463    0.9674   22.2004 O.3     1  UNL1       -0.4685
     13 C           1.3829    3.1455   28.6890 C.ar    1  UNL1        0.0645
     14 N           1.3990    3.3727   30.1715 N.ar    1  UNL1       -0.2183
     15 C           0.8431    2.3305   31.0961 C.ar    1  UNL1        0.2145
     16 N           0.8593    2.5577   32.5787 N.pl3   1  UNL1       -0.3274
     17 N           0.2710    1.0611   30.5381 N.ar    1  UNL1       -0.1995
     18 C           0.2548    0.8339   29.0554 C.ar    1  UNL1        0.1293
     19 N          -0.3173   -0.4354   28.4974 N.pl3   1  UNL1       -0.3425
     20 C           0.8108    1.8761   28.1309 C.ar    1  UNL1        0.0449
     21 H           1.2347    3.3908   32.9450 H       1  UNL1        0.1452
     22 H           0.4944    1.8737   33.1855 H       1  UNL1        0.1452
     23 H          -0.6821   -1.1194   29.1042 H       1  UNL1        0.1437
     24 H          -0.3279   -0.5845   27.5243 H       1  UNL1        0.1437
     25 C           1.0844    5.3444   27.3377 C.3     1  UNL1        0.0067
     26 C           1.9388    4.1877   27.7643 C.3     1  UNL1        0.0460
     27 C           2.7771   -0.2687   20.4464 C.ar    1  UNL1        0.0516
     28 C           2.7010   -1.7327   20.1287 C.ar    1  UNL1        0.0314
     29 C           3.5626   -2.3107   19.0454 C.ar    1  UNL1        0.1401
     30 F           3.4866   -3.7747   18.7276 F       1  UNL1       -0.2042
     31 C           4.5001   -1.4248   18.2798 C.ar    1  UNL1        0.0319
     32 C           4.5762    0.0391   18.5975 C.ar    1  UNL1        0.0317
     33 C           3.7146    0.6172   19.6808 C.ar    1  UNL1        0.1400
     34 F           3.7906    2.0813   19.9986 F       1  UNL1       -0.2044
     35 C           4.3025   -0.3250   24.6362 C.3     1  UNL1        0.1196
     36 C           4.4842   -1.7715   24.9891 C.3     1  UNL1        0.1113
     37 N           5.7282   -2.4959   24.5673 N.am    1  UNL1       -0.3026
     38 C           5.6699   -3.5023   23.4565 C.2     1  UNL1        0.2230
     39 C           6.9138   -4.2266   23.0348 C.3     1  UNL1        0.0946
     40 O           4.3677   -3.7842   22.7675 O.2     1  UNL1       -0.2751
     41 H           6.5828   -2.3108   25.0196 H       1  UNL1        0.1495
@<TRIPOS>BOND
     1    25    26    1
     2    26    13    1
     3    13    14   ar
     4    14    15   ar
     5    15    16    1
     6    15    17   ar
     7    17    18   ar
     8    18    19    1
     9    18    20   ar
    10    20     1    1
    11     1     2   ar
    12     2     3   ar
    13     3     4   ar
    14     4     5   ar
    15     5     6   ar
    16     5     7    1
    17     7    35    1
    18    35    36    1
    19    36    37    1
    20    37    38   am
    21    38    39    1
    22    38    40    2
    23     7     8   am
    24     8     9    2
    25     8    10    1
    26    10    11    1
    27    10    27    1
    28    27    28   ar
    29    28    29   ar
    30    29    30    1
    31    29    31   ar
    32    31    32   ar
    33    32    33   ar
    34    33    34    1
    35    10    12    1
    36    20    13   ar
    37     6     1   ar
    38    33    27   ar
    39    12     4    1
    40    16    21    1
    41    16    22    1
    42    19    23    1
    43    19    24    1
    44    37    41    1
@<TRIPOS>MOLECULE
*****
 41 44 0 0 0
SMALL
GASTEIGER

@<TRIPOS>ATOM
      1 C           1.1163    1.4163   26.3249 C.ar    1  UNL1        0.0053
      2 C           0.2024    2.1157   25.3628 C.ar    1  UNL1        0.0033
      3 C           0.3398    1.8758   23.8886 C.ar    1  UNL1        0.0382
      4 C           1.3912    0.9365   23.3763 C.ar    1  UNL1        0.1529
      5 C           2.3051    0.2371   24.3384 C.ar    1  UNL1        0.0882
      6 C           2.1676    0.4770   25.8126 C.ar    1  UNL1        0.0181
      7 N           3.3564   -0.7022   23.8262 N.am    1  UNL1       -0.2512
      8 C           3.4939   -0.9421   22.3519 C.2     1  UNL1        0.2698
      9 O           4.5452   -1.8814   21.8397 O.2     1  UNL1       -0.2704
     10 C           2.5799   -0.2427   21.3898 C.3     1  UNL1        0.2219
     11 C           1.9559    0.1817   20.0935 C.3     1  UNL1        0.0580
     12 O           1.5286    0.6966   21.9020 O.3     1  UNL1       -0.4685
     13 C           1.7286    2.7812   28.4491 C.ar    1  UNL1        0.0645
     14 N           1.5912    3.0211   29.9234 N.ar    1  UNL1       -0.2183
     15 C           0.7040    2.1360   30.7479 C.ar    1  UNL1        0.2145
     16 N           0.5667    2.3759   32.2221 N.pl3   1  UNL1       -0.3274
     17 N          -0.0457    1.0110   30.0980 N.ar    1  UNL1       -0.1995
     18 C           0.0918    0.7711   28.6236 C.ar    1  UNL1        0.1293
     19 N          -0.6580   -0.3539   27.9737 N.pl3   1  UNL1       -0.3425
     20 C           0.9788    1.6562   27.7992 C.ar    1  UNL1        0.0449
     21 H           1.0587    3.1142   32.6487 H       1  UNL1        0.1452
     22 H          -0.0156    1.7950   32.7632 H       1  UNL1        0.1452
     23 H          -1.2402   -0.9348   28.5148 H       1  UNL1        0.1437
     24 H          -0.5678   -0.5113   27.0061 H       1  UNL1        0.1437
     25 C           4.0843    3.3763   27.5291 C.3     1  UNL1        0.0067
     26 C           2.6157    3.6663   27.6246 C.3     1  UNL1        0.0460
     27 C           3.4145   -1.0346   20.4274 C.ar    1  UNL1        0.0516
     28 C           2.9867   -2.4141   20.0225 C.ar    1  UNL1        0.0314
     29 C           3.8214   -3.2059   19.0600 C.ar    1  UNL1        0.1401
     30 F           3.3935   -4.5855   18.6552 F       1  UNL1       -0.2042
     31 C           5.0838   -2.6184   18.5025 C.ar    1  UNL1        0.0319
     32 C           5.5116   -1.2390   18.9073 C.ar    1  UNL1        0.0317
     33 C           4.6770   -0.4470   19.8698 C.ar    1  UNL1        0.1400
     34 F           5.1049    0.9325   20.2747 F       1  UNL1       -0.2044
     35 C           4.2703   -1.4016   24.7882 C.3     1  UNL1        0.1196
     36 C           5.6406   -0.8527   25.0549 C.3     1  UNL1        0.1113
     37 N           6.6891   -0.8998   23.9832 N.am    1  UNL1       -0.3026
     38 C           6.8961    0.2828   23.0841 C.2     1  UNL1        0.2230
     39 C           7.9446    0.2358   22.0124 C.3     1  UNL1        0.0946
     40 O           6.0546    1.5126   23.2566 O.2     1  UNL1       -0.2751
     41 H           7.2413   -1.7069   23.8700 H       1  UNL1        0.1495
@<TRIPOS>BOND
     1    25    26    1
     2    26    13    1
     3    13    14   ar
     4    14    15   ar
     5    15    16    1
     6    15    17   ar
     7    17    18   ar
     8    18    19    1
     9    18    20   ar
    10    20     1    1
    11     1     2   ar
    12     2     3   ar
    13     3     4   ar
    14     4     5   ar
    15     5     6   ar
    16     5     7    1
    17     7    35    1
    18    35    36    1
    19    36    37    1
    20    37    38   am
    21    38    39    1
    22    38    40    2
    23     7     8   am
    24     8     9    2
    25     8    10    1
    26    10    11    1
    27    10    27    1
    28    27    28   ar
    29    28    29   ar
    30    29    30    1
    31    29    31   ar
    32    31    32   ar
    33    32    33   ar
    34    33    34    1
    35    10    12    1
    36    20    13   ar
    37     6     1   ar
    38    33    27   ar
    39    12     4    1
    40    16    21    1
    41    16    22    1
    42    19    23    1
    43    19    24    1
    44    37    41    1
@<TRIPOS>MOLECULE
*****
 41 44 0 0 0
SMALL
GASTEIGER

@<TRIPOS>ATOM
      1 C         -10.0973  -19.1499   22.3674 C.ar    1  UNL1        0.0053
      2 C         -10.1331  -20.1258   21.2288 C.ar    1  UNL1        0.0033
      3 C          -8.8806  -20.4289   20.4612 C.ar    1  UNL1        0.0382
      4 C          -7.5922  -19.7562   20.8322 C.ar    1  UNL1        0.1529
      5 C          -7.5564  -18.7803   21.9707 C.ar    1  UNL1        0.0882
      6 C          -8.8089  -18.4772   22.7383 C.ar    1  UNL1        0.0181
      7 N          -6.2681  -18.1076   22.3417 N.am    1  UNL1       -0.2512
      8 C          -5.0155  -18.4107   21.5741 C.2     1  UNL1        0.2698
      9 O          -3.7272  -17.7379   21.9450 O.2     1  UNL1       -0.2704
     10 C          -5.0513  -19.3866   20.4354 C.3     1  UNL1        0.2219
     11 C          -4.5833  -20.2307   19.2872 C.3     1  UNL1        0.0580
     12 O          -6.3397  -20.0594   20.0645 O.3     1  UNL1       -0.4685
     13 C         -12.4668  -18.0903   22.4793 C.ar    1  UNL1        0.0645
     14 N         -13.7193  -17.7871   23.2469 N.ar    1  UNL1       -0.2183
     15 C         -13.8549  -18.2404   24.6703 C.ar    1  UNL1        0.2145
     16 N         -15.1074  -17.9372   25.4379 N.pl3   1  UNL1       -0.3274
     17 N         -12.7379  -18.9969   25.3262 N.ar    1  UNL1       -0.1995
     18 C         -11.4853  -19.3000   24.5585 C.ar    1  UNL1        0.1293
     19 N         -10.3683  -20.0565   25.2143 N.pl3   1  UNL1       -0.3425
     20 C         -11.3498  -18.8468   23.1351 C.ar    1  UNL1        0.0449
     21 H         -15.8405  -17.4408   25.0075 H       1  UNL1        0.1452
     22 H         -15.1964  -18.2347   26.3722 H       1  UNL1        0.1452
     23 H         -10.4573  -20.3540   26.1485 H       1  UNL1        0.1437
     24 H          -9.5462  -20.2555   24.7105 H       1  UNL1        0.1437
     25 C         -11.7815  -16.2750   20.7515 C.3     1  UNL1        0.0067
     26 C         -12.3313  -17.6370   21.0558 C.3     1  UNL1        0.0460
     27 C          -3.6005  -19.0070   20.4076 C.ar    1  UNL1        0.0516
     28 C          -3.0712  -18.1477   19.2979 C.ar    1  UNL1        0.0314
     29 C          -1.6203  -17.7681   19.2701 C.ar    1  UNL1        0.1401
     30 F          -1.0910  -16.9088   18.1604 F       1  UNL1       -0.2042
     31 C          -0.6986  -18.2478   20.3520 C.ar    1  UNL1        0.0319
     32 C          -1.2279  -19.1070   21.4617 C.ar    1  UNL1        0.0317
     33 C          -2.6788  -19.4867   21.4895 C.ar    1  UNL1        0.1400
     34 F          -3.2081  -20.3460   22.5993 F       1  UNL1       -0.2044
     35 C          -6.2322  -17.1317   23.4802 C.3     1  UNL1        0.1196
     36 C          -7.2689  -16.0517   23.5753 C.3     1  UNL1        0.1113
     37 N          -7.4459  -15.2928   24.8570 N.am    1  UNL1       -0.3026
     38 C          -8.2633  -15.8797   25.9694 C.2     1  UNL1        0.2230
     39 C          -8.4404  -15.1208   27.2510 C.3     1  UNL1        0.0946
     40 O          -8.9036  -17.2256   25.8000 O.2     1  UNL1       -0.2751
     41 H          -7.0257  -14.4094   24.9681 H       1  UNL1        0.1495
@<TRIPOS>BOND
     1    25    26    1
     2    26    13    1
     3    13    14   ar
     4    14    15   ar
     5    15    16    1
     6    15    17   ar
     7    17    18   ar
     8    18    19    1
     9    18    20   ar
    10    20     1    1
    11     1     2   ar
    12     2     3   ar
    13     3     4   ar
    14     4     5   ar
    15     5     6   ar
    16     5     7    1
    17     7    35    1
    18    35    36    1
    19    36    37    1
    20    37    38   am
    21    38    39    1
    22    38    40    2
    23     7     8   am
    24     8     9    2
    25     8    10    1
    26    10    11    1
    27    10    27    1
    28    27    28   ar
    29    28    29   ar
    30    29    30    1
    31    29    31   ar
    32    31    32   ar
    33    32    33   ar
    34    33    34    1
    35    10    12    1
    36    20    13   ar
    37     6     1   ar
    38    33    27   ar
    39    12     4    1
    40    16    21    1
    41    16    22    1
    42    19    23    1
    43    19    24    1
    44    37    41    1
@<TRIPOS>MOLECULE
*****
 41 44 0 0 0
SMALL
GASTEIGER

@<TRIPOS>ATOM
      1 C           3.0643    0.4838   27.5470 C.ar    1  UNL1        0.0053
      2 C           4.1010   -0.4429   28.1094 C.ar    1  UNL1        0.0033
      3 C           4.8031   -1.4170   27.2104 C.ar    1  UNL1        0.0382
      4 C           4.4685   -1.4643   25.7490 C.ar    1  UNL1        0.1529
      5 C           3.4318   -0.5376   25.1865 C.ar    1  UNL1        0.0882
      6 C           2.7297    0.4365   26.0855 C.ar    1  UNL1        0.0181
      7 N           3.0972   -0.5849   23.7251 N.am    1  UNL1       -0.2512
      8 C           3.7992   -1.5590   22.8261 C.2     1  UNL1        0.2698
      9 O           3.4646   -1.6063   21.3647 O.2     1  UNL1       -0.2704
     10 C           4.8360   -2.4858   23.3885 C.3     1  UNL1        0.2219
     11 C           5.8827   -3.5583   23.4510 C.3     1  UNL1        0.0580
     12 O           5.1706   -2.4384   24.8500 O.3     1  UNL1       -0.4685
     13 C           1.0528    1.0870   29.0767 C.ar    1  UNL1        0.0645
     14 N           0.3507    2.0610   29.9757 N.ar    1  UNL1       -0.2183
     15 C           0.9579    3.4062   30.2440 C.ar    1  UNL1        0.2145
     16 N           0.2558    4.3802   31.1429 N.pl3   1  UNL1       -0.3274
     17 N           2.2673    3.7772   29.6132 N.ar    1  UNL1       -0.1995
     18 C           2.9695    2.8030   28.7142 C.ar    1  UNL1        0.1293
     19 N           4.2789    3.1740   28.0835 N.pl3   1  UNL1       -0.3425
     20 C           2.3622    1.4580   28.4460 C.ar    1  UNL1        0.0449
     21 H          -0.6036    4.1367   31.5569 H       1  UNL1        0.1452
     22 H           0.6544    5.2630   31.3190 H       1  UNL1        0.1452
     23 H           4.6774    4.0569   28.2595 H       1  UNL1        0.1437
     24 H           4.7397    2.5347   27.4934 H       1  UNL1        0.1437
     25 C          -1.0449   -0.4257   28.8285 C.3     1  UNL1        0.0067
     26 C           0.4455   -0.2582   28.8085 C.3     1  UNL1        0.0460
     27 C           4.8649   -2.9056   21.9488 C.ar    1  UNL1        0.0516
     28 C           3.9961   -4.0347   21.4792 C.ar    1  UNL1        0.0314
     29 C           4.0251   -4.4544   20.0394 C.ar    1  UNL1        0.1401
     30 F           3.1564   -5.5835   19.5698 F       1  UNL1       -0.2042
     31 C           4.9227   -3.7452   19.0692 C.ar    1  UNL1        0.0319
     32 C           5.7914   -2.6162   19.5388 C.ar    1  UNL1        0.0317
     33 C           5.7625   -2.1963   20.9786 C.ar    1  UNL1        0.1400
     34 F           6.6312   -1.0672   21.4483 F       1  UNL1       -0.2044
     35 C           2.0605    0.3418   23.1627 C.3     1  UNL1        0.1196
     36 C           2.4635    1.4290   22.2110 C.3     1  UNL1        0.1113
     37 N           2.4480    1.1754   20.7326 N.am    1  UNL1       -0.3026
     38 C           1.1432    0.9819   20.0185 C.2     1  UNL1        0.2230
     39 C           1.1277    0.7283   18.5402 C.3     1  UNL1        0.0946
     40 O          -0.1462    1.0420   20.7827 O.2     1  UNL1       -0.2751
     41 H           3.2943    1.1360   20.2311 H       1  UNL1        0.1495
@<TRIPOS>BOND
     1    25    26    1
     2    26    13    1
     3    13    14   ar
     4    14    15   ar
     5    15    16    1
     6    15    17   ar
     7    17    18   ar
     8    18    19    1
     9    18    20   ar
    10    20     1    1
    11     1     2   ar
    12     2     3   ar
    13     3     4   ar
    14     4     5   ar
    15     5     6   ar
    16     5     7    1
    17     7    35    1
    18    35    36    1
    19    36    37    1
    20    37    38   am
    21    38    39    1
    22    38    40    2
    23     7     8   am
    24     8     9    2
    25     8    10    1
    26    10    11    1
    27    10    27    1
    28    27    28   ar
    29    28    29   ar
    30    29    30    1
    31    29    31   ar
    32    31    32   ar
    33    32    33   ar
    34    33    34    1
    35    10    12    1
    36    20    13   ar
    37     6     1   ar
    38    33    27   ar
    39    12     4    1
    40    16    21    1
    41    16    22    1
    42    19    23    1
    43    19    24    1
    44    37    41    1
@<TRIPOS>MOLECULE
*****
 41 44 0 0 0
SMALL
GASTEIGER

@<TRIPOS>ATOM
      1 C          -2.1060    3.4162   25.3061 C.ar    1  UNL1        0.0053
      2 C          -1.3617    2.4082   26.1306 C.ar    1  UNL1        0.0033
      3 C          -0.2406    1.6206   25.5202 C.ar    1  UNL1        0.0382
      4 C           0.1363    1.8410   24.0851 C.ar    1  UNL1        0.1529
      5 C          -0.6080    2.8490   23.2605 C.ar    1  UNL1        0.0882
      6 C          -1.7291    3.6366   23.8710 C.ar    1  UNL1        0.0181
      7 N          -0.2311    3.0694   21.8255 N.am    1  UNL1       -0.2512
      8 C           0.8900    2.2818   21.2150 C.2     1  UNL1        0.2698
      9 O           1.2669    2.5022   19.7799 O.2     1  UNL1       -0.2704
     10 C           1.6343    1.2737   22.0396 C.3     1  UNL1        0.2219
     11 C           2.6295    0.2145   22.4106 C.3     1  UNL1        0.0580
     12 O           1.2575    1.0533   23.4746 O.3     1  UNL1       -0.4685
     13 C          -2.9380    5.2144   26.9867 C.ar    1  UNL1        0.0645
     14 N          -4.0591    6.0020   27.5972 N.ar    1  UNL1       -0.2183
     15 C          -5.4694    5.7792   27.1374 C.ar    1  UNL1        0.2145
     16 N          -6.5905    6.5669   27.7479 N.pl3   1  UNL1       -0.3274
     17 N          -5.7586    4.7687   26.0672 N.ar    1  UNL1       -0.1995
     18 C          -4.6374    3.9811   25.4568 C.ar    1  UNL1        0.1293
     19 N          -4.9266    2.9706   24.3866 N.pl3   1  UNL1       -0.3425
     20 C          -3.2272    4.2039   25.9165 C.ar    1  UNL1        0.0449
     21 H          -6.4007    7.2301   28.4503 H       1  UNL1        0.1452
     22 H          -7.5162    6.4206   27.4462 H       1  UNL1        0.1452
     23 H          -5.8523    2.8244   24.0849 H       1  UNL1        0.1437
     24 H          -4.1908    2.4536   23.9859 H       1  UNL1        0.1437
     25 C          -0.6915    6.5076   26.8099 C.3     1  UNL1        0.0067
     26 C          -1.5276    5.4372   27.4464 C.3     1  UNL1        0.0460
     27 C           2.3568    1.1263   20.7334 C.ar    1  UNL1        0.0516
     28 C           3.5536    1.9809   20.4376 C.ar    1  UNL1        0.0314
     29 C           4.2760    1.8333   19.1313 C.ar    1  UNL1        0.1401
     30 F           5.4728    2.6879   18.8355 F       1  UNL1       -0.2042
     31 C           3.8018    0.8313   18.1209 C.ar    1  UNL1        0.0319
     32 C           2.6051   -0.0232   18.4167 C.ar    1  UNL1        0.0317
     33 C           1.8826    0.1242   19.7229 C.ar    1  UNL1        0.1400
     34 F           0.6858   -0.7304   20.0188 F       1  UNL1       -0.2044
     35 C          -0.9753    4.0774   21.0009 C.3     1  UNL1        0.1196
     36 C          -2.1203    3.6405   20.1358 C.3     1  UNL1        0.1113
     37 N          -3.4051    4.4147   20.1448 N.am    1  UNL1       -0.3026
     38 C          -4.6181    3.8469   20.8200 C.2     1  UNL1        0.2230
     39 C          -5.9029    4.6210   20.8290 C.3     1  UNL1        0.0946
     40 O          -4.5464    2.5048   21.4864 O.2     1  UNL1       -0.2751
     41 H          -3.4521    5.2955   19.7075 H       1  UNL1        0.1495
@<TRIPOS>BOND
     1    25    26    1
     2    26    13    1
     3    13    14   ar
     4    14    15   ar
     5    15    16    1
     6    15    17   ar
     7    17    18   ar
     8    18    19    1
     9    18    20   ar
    10    20     1    1
    11     1     2   ar
    12     2     3   ar
    13     3     4   ar
    14     4     5   ar
    15     5     6   ar
    16     5     7    1
    17     7    35    1
    18    35    36    1
    19    36    37    1
    20    37    38   am
    21    38    39    1
    22    38    40    2
    23     7     8   am
    24     8     9    2
    25     8    10    1
    26    10    11    1
    27    10    27    1
    28    27    28   ar
    29    28    29   ar
    30    29    30    1
    31    29    31   ar
    32    31    32   ar
    33    32    33   ar
    34    33    34    1
    35    10    12    1
    36    20    13   ar
    37     6     1   ar
    38    33    27   ar
    39    12     4    1
    40    16    21    1
    41    16    22    1
    42    19    23    1
    43    19    24    1
    44    37    41    1
