@<TRIPOS>MOLECULE
*****
 37 40 0 0 0
SMALL
GASTEIGER

@<TRIPOS>ATOM
      1 C           8.5006   -5.3669   26.9357 C.3     1  UNL1        0.0903
      2 C           8.5703   -6.6831   27.6515 C.3     1  UNL1        0.0920
      3 N           8.4825   -7.9641   26.8761 N.3     1  UNL1       -0.2701
      4 C           8.5522   -9.2805   27.5920 C.3     1  UNL1        0.0897
      5 C           8.3250   -7.9288   25.3848 C.3     1  UNL1        0.0723
      6 C           8.2553   -6.6125   24.6690 C.3     1  UNL1        0.0204
      7 C           8.3431   -5.3316   25.4444 C.3     1  UNL1        0.0368
      8 N           7.5508   -2.3965   29.3902 N.am    1  UNL1       -0.2485
      9 C           7.4630   -3.6775   28.6148 C.2     1  UNL1        0.3059
     10 O           6.2497   -4.5502   28.7430 O.2     1  UNL1       -0.2524
     11 N           8.5885   -4.0858   27.7111 N.am    1  UNL1       -0.2889
     12 H           8.3470   -1.8237   29.3060 H       1  UNL1        0.1583
     13 H           9.3848   -3.5130   27.6269 H       1  UNL1        0.1510
     14 C           4.9931   -1.7641   32.2405 C.ar    1  UNL1        0.0803
     15 S           6.2487   -2.4023   31.7246 S.2     1  UNL1       -0.0488
     16 C           6.4253   -1.9881   30.2938 C.ar    1  UNL1        0.1664
     17 N           5.2788   -1.0939   29.9253 N.ar    1  UNL1       -0.2282
     18 C           4.3936   -0.9554   31.1284 C.ar    1  UNL1        0.0701
     19 C           3.1307   -0.1497   31.2058 C.3     1  UNL1        0.0528
     20 C           4.7233   -0.8652   34.6631 C.3     1  UNL1        0.0779
     21 C           4.4350   -1.9091   33.6252 C.2     1  UNL1        0.1807
     22 O           3.5886   -3.0978   33.9720 O.2     1  UNL1       -0.2908
     23 C           8.2734   -4.0152   24.7285 C.3     1  UNL1        0.0738
     24 N           6.9415   -3.4289   24.3648 N.3     1  UNL1       -0.2726
     25 C           6.3292   -2.3658   25.2280 C.3     1  UNL1        0.0721
     26 C           4.9973   -1.7795   24.8643 C.3     1  UNL1        0.0174
     27 C           4.2777   -2.2562   23.6375 C.3     1  UNL1        0.0031
     28 C           4.8901   -3.3192   22.7744 C.3     1  UNL1        0.0204
     29 C           6.2220   -3.9055   23.1381 C.3     1  UNL1        0.0724
     30 C           4.1706   -3.7959   21.5475 C.3     1  UNL1        0.0277
     31 C           4.1845   -2.9643   20.2993 C.ar    1  UNL1       -0.0220
     32 C           3.2264   -1.8197   20.1499 C.ar    1  UNL1       -0.0020
     33 C           3.2402   -0.9881   18.9017 C.ar    1  UNL1        0.0293
     34 C           4.2121   -1.3009   17.8027 C.ar    1  UNL1        0.1401
     35 F           4.2260   -0.4693   16.5545 F       1  UNL1       -0.2042
     36 C           5.1701   -2.4454   17.9521 C.ar    1  UNL1        0.0293
     37 C           5.1563   -3.2771   19.2003 C.ar    1  UNL1       -0.0020
@<TRIPOS>BOND
     1    20    21    1
     2    21    22    2
     3    21    14    1
     4    14    15   ar
     5    15    16   ar
     6    16     8    1
     7     8     9   am
     8     9    10    2
     9     9    11   am
    10     1    11    1
    11     1     2    1
    12     2     3    1
    13     3     4    1
    14     3     5    1
    15     5     6    1
    16     6     7    1
    17     7    23    1
    18    23    24    1
    19    24    25    1
    20    25    26    1
    21    26    27    1
    22    27    28    1
    23    28    30    1
    24    30    31    1
    25    31    32   ar
    26    32    33   ar
    27    33    34   ar
    28    34    35    1
    29    34    36   ar
    30    36    37   ar
    31    28    29    1
    32    16    17   ar
    33    17    18   ar
    34    18    19    1
    35    18    14   ar
    36     7     1    1
    37    29    24    1
    38    37    31   ar
    39     8    12    1
    40    11    13    1
@<TRIPOS>MOLECULE
*****
 37 40 0 0 0
SMALL
GASTEIGER

@<TRIPOS>ATOM
      1 C          -5.1075    5.2578   24.1378 C.3     1  UNL1        0.0903
      2 C          -5.8535    6.3584   24.8323 C.3     1  UNL1        0.0920
      3 N          -7.3459    6.4462   24.7099 N.3     1  UNL1       -0.2701
      4 C          -8.0919    7.5468   25.4044 C.3     1  UNL1        0.0897
      5 C          -8.0923    5.4334   23.8932 C.3     1  UNL1        0.0723
      6 C          -7.3464    4.3328   23.1988 C.3     1  UNL1        0.0204
      7 C          -5.8540    4.2450   23.3211 C.3     1  UNL1        0.0368
      8 N          -1.5068    4.2867   25.4951 N.am    1  UNL1       -0.2485
      9 C          -2.9992    4.3745   25.3727 C.2     1  UNL1        0.3059
     10 O          -3.8759    3.6668   26.3631 O.2     1  UNL1       -0.2524
     11 N          -3.6150    5.1700   24.2601 N.am    1  UNL1       -0.2889
     12 H          -0.9315    4.7512   24.8451 H       1  UNL1        0.1583
     13 H          -3.0397    5.6345   23.6102 H       1  UNL1        0.1510
     14 C          -0.1985    1.6340   28.0085 C.ar    1  UNL1        0.0803
     15 S          -0.9419    1.9995   26.7580 S.2     1  UNL1       -0.0488
     16 C          -0.8910    3.4911   26.6077 C.ar    1  UNL1        0.1664
     17 N          -0.1163    4.0475   27.7654 N.ar    1  UNL1       -0.2282
     18 C           0.3117    2.8997   28.6311 C.ar    1  UNL1        0.0701
     19 C           1.1099    3.0001   29.8972 C.3     1  UNL1        0.0528
     20 C          -1.1870   -0.5829   28.9347 C.3     1  UNL1        0.0779
     21 C          -0.0003    0.2465   28.5427 C.2     1  UNL1        0.1807
     22 O           1.3847   -0.3117   28.6848 O.2     1  UNL1       -0.2908
     23 C          -5.1079    3.1444   22.6267 C.3     1  UNL1        0.0738
     24 N          -4.4047    3.4171   21.3301 N.3     1  UNL1       -0.2726
     25 C          -5.2003    3.7017   20.0907 C.3     1  UNL1        0.0721
     26 C          -4.4970    3.9743   18.7941 C.3     1  UNL1        0.0174
     27 C          -2.9981    3.9623   18.7370 C.3     1  UNL1        0.0031
     28 C          -2.2026    3.6777   19.9763 C.3     1  UNL1        0.0204
     29 C          -2.9058    3.4051   21.2729 C.3     1  UNL1        0.0724
     30 C          -0.7036    3.6658   19.9191 C.3     1  UNL1        0.0277
     31 C           0.0340    2.3613   19.8532 C.ar    1  UNL1       -0.0220
     32 C           0.2242    1.5436   21.0963 C.ar    1  UNL1       -0.0020
     33 C           0.9618    0.2392   21.0304 C.ar    1  UNL1        0.0293
     34 C           1.5092   -0.2476   19.7214 C.ar    1  UNL1        0.1401
     35 F           2.2468   -1.5520   19.6554 F       1  UNL1       -0.2042
     36 C           1.3190    0.5701   18.4784 C.ar    1  UNL1        0.0293
     37 C           0.5814    1.8746   18.5443 C.ar    1  UNL1       -0.0020
@<TRIPOS>BOND
     1    20    21    1
     2    21    22    2
     3    21    14    1
     4    14    15   ar
     5    15    16   ar
     6    16     8    1
     7     8     9   am
     8     9    10    2
     9     9    11   am
    10     1    11    1
    11     1     2    1
    12     2     3    1
    13     3     4    1
    14     3     5    1
    15     5     6    1
    16     6     7    1
    17     7    23    1
    18    23    24    1
    19    24    25    1
    20    25    26    1
    21    26    27    1
    22    27    28    1
    23    28    30    1
    24    30    31    1
    25    31    32   ar
    26    32    33   ar
    27    33    34   ar
    28    34    35    1
    29    34    36   ar
    30    36    37   ar
    31    28    29    1
    32    16    17   ar
    33    17    18   ar
    34    18    19    1
    35    18    14   ar
    36     7     1    1
    37    29    24    1
    38    37    31   ar
    39     8    12    1
    40    11    13    1
@<TRIPOS>MOLECULE
*****
 37 40 0 0 0
SMALL
GASTEIGER

@<TRIPOS>ATOM
      1 C           4.7308    1.1573   33.9460 C.3     1  UNL1        0.0903
      2 C           4.7740    2.4736   34.6639 C.3     1  UNL1        0.0920
      3 N           4.7793    2.5103   36.1634 N.3     1  UNL1       -0.2701
      4 C           4.8224    3.8267   36.8813 C.3     1  UNL1        0.0897
      5 C           4.7414    1.2306   36.9451 C.3     1  UNL1        0.0723
      6 C           4.6983   -0.0857   36.2272 C.3     1  UNL1        0.0204
      7 C           4.6930   -0.1224   34.7277 C.3     1  UNL1        0.0368
      8 N           3.4223    0.9669   30.2042 N.am    1  UNL1       -0.2485
      9 C           3.4276    1.0037   31.7037 C.2     1  UNL1        0.3059
     10 O           2.1350    0.9236   32.4605 O.2     1  UNL1       -0.2524
     11 N           4.7256    1.1205   32.4465 N.am    1  UNL1       -0.2889
     12 H           4.2707    1.0195   29.7075 H       1  UNL1        0.1583
     13 H           5.5739    1.1731   31.9498 H       1  UNL1        0.1510
     14 C           0.3389    1.2254   27.8608 C.ar    1  UNL1        0.0803
     15 S           1.7043    1.6796   28.2844 S.2     1  UNL1       -0.0488
     16 C           2.1243    0.8501   29.4614 C.ar    1  UNL1        0.1664
     17 N           1.0185   -0.1168   29.7653 N.ar    1  UNL1       -0.2282
     18 C          -0.0849    0.1152   28.7760 C.ar    1  UNL1        0.0701
     19 C          -1.3841   -0.6319   28.7131 C.3     1  UNL1        0.0528
     20 C          -0.1493    1.3736   25.3133 C.3     1  UNL1        0.0779
     21 C          -0.4620    1.7835   26.7219 C.2     1  UNL1        0.1807
     22 O          -1.5756    2.7515   26.9915 O.2     1  UNL1       -0.2908
     23 C           4.6498   -1.4388   34.0098 C.3     1  UNL1        0.0738
     24 N           5.8837   -1.9697   33.3422 N.3     1  UNL1       -0.2726
     25 C           7.1749   -1.2128   33.4414 C.3     1  UNL1        0.0721
     26 C           8.4087   -1.7437   32.7737 C.3     1  UNL1        0.0174
     27 C           8.3513   -3.0316   32.0068 C.3     1  UNL1        0.0031
     28 C           7.0601   -3.7885   31.9076 C.3     1  UNL1        0.0204
     29 C           5.8263   -3.2576   32.5753 C.3     1  UNL1        0.0724
     30 C           7.0027   -5.0764   31.1407 C.3     1  UNL1        0.0277
     31 C           6.9864   -5.0561   29.6409 C.ar    1  UNL1       -0.0220
     32 C           7.4814   -6.2435   28.8694 C.ar    1  UNL1       -0.0020
     33 C           7.4650   -6.2232   27.3696 C.ar    1  UNL1        0.0293
     34 C           6.9537   -5.0156   26.6414 C.ar    1  UNL1        0.1401
     35 F           6.9373   -4.9953   25.1416 F       1  UNL1       -0.2042
     36 C           6.4587   -3.8283   27.4130 C.ar    1  UNL1        0.0293
     37 C           6.4751   -3.8486   28.9127 C.ar    1  UNL1       -0.0020
@<TRIPOS>BOND
     1    20    21    1
     2    21    22    2
     3    21    14    1
     4    14    15   ar
     5    15    16   ar
     6    16     8    1
     7     8     9   am
     8     9    10    2
     9     9    11   am
    10     1    11    1
    11     1     2    1
    12     2     3    1
    13     3     4    1
    14     3     5    1
    15     5     6    1
    16     6     7    1
    17     7    23    1
    18    23    24    1
    19    24    25    1
    20    25    26    1
    21    26    27    1
    22    27    28    1
    23    28    30    1
    24    30    31    1
    25    31    32   ar
    26    32    33   ar
    27    33    34   ar
    28    34    35    1
    29    34    36   ar
    30    36    37   ar
    31    28    29    1
    32    16    17   ar
    33    17    18   ar
    34    18    19    1
    35    18    14   ar
    36     7     1    1
    37    29    24    1
    38    37    31   ar
    39     8    12    1
    40    11    13    1
@<TRIPOS>MOLECULE
*****
 37 40 0 0 0
SMALL
GASTEIGER

@<TRIPOS>ATOM
      1 C           3.7963   -0.4738   21.1546 C.3     1  UNL1        0.0903
      2 C           5.2531   -0.8173   21.0570 C.3     1  UNL1        0.0920
      3 N           5.7124   -1.8702   20.0924 N.3     1  UNL1       -0.2701
      4 C           7.1693   -2.2138   19.9948 C.3     1  UNL1        0.0897
      5 C           4.7148   -2.5796   19.2254 C.3     1  UNL1        0.0723
      6 C           3.2580   -2.2360   19.3230 C.3     1  UNL1        0.0204
      7 C           2.7987   -1.1831   20.2876 C.3     1  UNL1        0.0368
      8 N           2.5541    1.2611   24.5008 N.am    1  UNL1       -0.2485
      9 C           3.0134    0.2083   23.5362 C.2     1  UNL1        0.3059
     10 O           3.1492   -1.2155   23.9885 O.2     1  UNL1       -0.2524
     11 N           3.3369    0.5791   22.1192 N.am    1  UNL1       -0.2889
     12 H           2.4650    2.1956   24.2039 H       1  UNL1        0.1583
     13 H           3.2478    1.5136   21.8223 H       1  UNL1        0.1510
     14 C           1.0255    0.5479   27.9965 C.ar    1  UNL1        0.0803
     15 S           0.8962    1.0416   26.5860 S.2     1  UNL1       -0.0488
     16 C           2.2305    0.8903   25.9177 C.ar    1  UNL1        0.1664
     17 N           3.1845    0.3031   26.9153 N.ar    1  UNL1       -0.2282
     18 C           2.4398    0.0915   28.2000 C.ar    1  UNL1        0.0701
     19 C           3.0094   -0.4768   29.4660 C.3     1  UNL1        0.0528
     20 C          -1.3124   -0.2813   28.7690 C.3     1  UNL1        0.0779
     21 C          -0.0676    0.5161   29.0232 C.2     1  UNL1        0.1807
     22 O           0.0841    1.2817   30.3041 O.2     1  UNL1       -0.2908
     23 C           1.3418   -0.8395   20.3852 C.3     1  UNL1        0.0738
     24 N           0.8717    0.5409   20.0339 N.3     1  UNL1       -0.2726
     25 C           1.0215    1.0498   18.6308 C.3     1  UNL1        0.0721
     26 C           0.5513    2.4302   18.2795 C.3     1  UNL1        0.0174
     27 C          -0.0687    3.3017   19.3313 C.3     1  UNL1        0.0031
     28 C          -0.2184    2.7928   20.7343 C.3     1  UNL1        0.0204
     29 C           0.2517    1.4124   21.0856 C.3     1  UNL1        0.0724
     30 C          -0.8384    3.6643   21.7861 C.3     1  UNL1        0.0277
     31 C          -2.3189    3.6165   22.0226 C.ar    1  UNL1       -0.0220
     32 C          -2.8664    3.8509   23.3994 C.ar    1  UNL1       -0.0020
     33 C          -4.3468    3.8031   23.6359 C.ar    1  UNL1        0.0293
     34 C          -5.2798    3.5209   22.4957 C.ar    1  UNL1        0.1401
     35 F          -6.7603    3.4731   22.7323 F       1  UNL1       -0.2042
     36 C          -4.7323    3.2864   21.1191 C.ar    1  UNL1        0.0293
     37 C          -3.2518    3.3342   20.8825 C.ar    1  UNL1       -0.0020
@<TRIPOS>BOND
     1    20    21    1
     2    21    22    2
     3    21    14    1
     4    14    15   ar
     5    15    16   ar
     6    16     8    1
     7     8     9   am
     8     9    10    2
     9     9    11   am
    10     1    11    1
    11     1     2    1
    12     2     3    1
    13     3     4    1
    14     3     5    1
    15     5     6    1
    16     6     7    1
    17     7    23    1
    18    23    24    1
    19    24    25    1
    20    25    26    1
    21    26    27    1
    22    27    28    1
    23    28    30    1
    24    30    31    1
    25    31    32   ar
    26    32    33   ar
    27    33    34   ar
    28    34    35    1
    29    34    36   ar
    30    36    37   ar
    31    28    29    1
    32    16    17   ar
    33    17    18   ar
    34    18    19    1
    35    18    14   ar
    36     7     1    1
    37    29    24    1
    38    37    31   ar
    39     8    12    1
    40    11    13    1
@<TRIPOS>MOLECULE
*****
 37 40 0 0 0
SMALL
GASTEIGER

@<TRIPOS>ATOM
      1 C          -2.3868    3.3155   20.1645 C.3     1  UNL1        0.0903
      2 C          -2.8236    3.9112   18.8590 C.3     1  UNL1        0.0920
      3 N          -1.8011    4.4308   17.8924 N.3     1  UNL1       -0.2701
      4 C          -2.2378    5.0266   16.5868 C.3     1  UNL1        0.0897
      5 C          -0.3418    4.3547   18.2312 C.3     1  UNL1        0.0723
      6 C           0.0949    3.7590   19.5367 C.3     1  UNL1        0.0204
      7 C          -0.9276    3.2394   20.5034 C.3     1  UNL1        0.0368
      8 N          -5.0610    3.2039   23.0947 N.am    1  UNL1       -0.2485
      9 C          -4.0386    3.7235   22.1281 C.2     1  UNL1        0.3059
     10 O          -3.6452    5.1707   22.1582 O.2     1  UNL1       -0.2524
     11 N          -3.4094    2.7959   21.1312 N.am    1  UNL1       -0.2889
     12 H          -5.3192    2.2541   23.0750 H       1  UNL1        0.1583
     13 H          -3.6675    1.8460   21.1114 H       1  UNL1        0.1510
     14 C          -6.0714    5.4658   26.0829 C.ar    1  UNL1        0.0803
     15 S          -5.1101    4.5259   25.4174 S.2     1  UNL1       -0.0488
     16 C          -5.6902    4.1315   24.0916 C.ar    1  UNL1        0.1664
     17 N          -7.0100    4.8276   23.9376 N.ar    1  UNL1       -0.2282
     18 C          -7.2455    5.6522   25.1683 C.ar    1  UNL1        0.0701
     19 C          -8.4447    6.5122   25.4371 C.3     1  UNL1        0.0528
     20 C          -4.6960    6.9758   27.6885 C.3     1  UNL1        0.0779
     21 C          -5.8902    6.1066   27.4269 C.2     1  UNL1        0.1807
     22 O          -6.9031    5.8782   28.5094 O.2     1  UNL1       -0.2908
     23 C          -0.4909    2.6436   21.8089 C.3     1  UNL1        0.0738
     24 N          -0.6202    3.4364   23.0757 N.3     1  UNL1       -0.2726
     25 C          -0.3137    4.9048   23.0760 C.3     1  UNL1        0.0721
     26 C          -0.4430    5.6977   24.3428 C.3     1  UNL1        0.0174
     27 C          -0.8789    5.0221   25.6092 C.3     1  UNL1        0.0031
     28 C          -1.1854    3.5538   25.6088 C.3     1  UNL1        0.0204
     29 C          -1.0561    2.7609   24.3420 C.3     1  UNL1        0.0724
     30 C          -1.6213    2.8782   26.8752 C.3     1  UNL1        0.0277
     31 C          -0.6931    1.9330   27.5788 C.ar    1  UNL1       -0.0220
     32 C          -1.2335    0.6888   28.2192 C.ar    1  UNL1       -0.0020
     33 C          -0.3054   -0.2564   28.9228 C.ar    1  UNL1        0.0293
     34 C           1.1632    0.0426   28.9860 C.ar    1  UNL1        0.1401
     35 F           2.0914   -0.9026   29.6896 F       1  UNL1       -0.2042
     36 C           1.7036    1.2867   28.3456 C.ar    1  UNL1        0.0293
     37 C           0.7754    2.2319   27.6420 C.ar    1  UNL1       -0.0020
@<TRIPOS>BOND
     1    20    21    1
     2    21    22    2
     3    21    14    1
     4    14    15   ar
     5    15    16   ar
     6    16     8    1
     7     8     9   am
     8     9    10    2
     9     9    11   am
    10     1    11    1
    11     1     2    1
    12     2     3    1
    13     3     4    1
    14     3     5    1
    15     5     6    1
    16     6     7    1
    17     7    23    1
    18    23    24    1
    19    24    25    1
    20    25    26    1
    21    26    27    1
    22    27    28    1
    23    28    30    1
    24    30    31    1
    25    31    32   ar
    26    32    33   ar
    27    33    34   ar
    28    34    35    1
    29    34    36   ar
    30    36    37   ar
    31    28    29    1
    32    16    17   ar
    33    17    18   ar
    34    18    19    1
    35    18    14   ar
    36     7     1    1
    37    29    24    1
    38    37    31   ar
    39     8    12    1
    40    11    13    1
@<TRIPOS>MOLECULE
*****
 37 40 0 0 0
SMALL
GASTEIGER

@<TRIPOS>ATOM
      1 C           2.7506    0.3394   20.3274 C.3     1  UNL1        0.0903
      2 C           3.0257    0.3492   18.8529 C.3     1  UNL1        0.0920
      3 N           3.5596   -0.8813   18.1815 N.3     1  UNL1       -0.2701
      4 C           3.8348   -0.8716   16.7069 C.3     1  UNL1        0.0897
      5 C           3.8183   -2.1216   18.9845 C.3     1  UNL1        0.0723
      6 C           3.5431   -2.1314   20.4590 C.3     1  UNL1        0.0204
      7 C           3.0093   -0.9009   21.1304 C.3     1  UNL1        0.0368
      8 N           0.2019    3.0072   21.7892 N.am    1  UNL1       -0.2485
      9 C           0.7358    1.7768   21.1177 C.2     1  UNL1        0.3059
     10 O          -0.2112    0.7532   20.5649 O.2     1  UNL1       -0.2524
     11 N           2.2167    1.5699   20.9990 N.am    1  UNL1       -0.2889
     12 H           0.8234    3.6790   22.1520 H       1  UNL1        0.1583
     13 H           2.8383    2.2416   21.3617 H       1  UNL1        0.1510
     14 C          -3.4730    3.7272   22.8101 C.ar    1  UNL1        0.0803
     15 S          -2.0122    3.6507   23.1416 S.2     1  UNL1       -0.0488
     16 C          -1.2790    3.2141   21.9080 C.ar    1  UNL1        0.1664
     17 N          -2.2868    3.0208   20.8140 N.ar    1  UNL1       -0.2282
     18 C          -3.6428    3.3379   21.3714 C.ar    1  UNL1        0.0701
     19 C          -4.9407    3.2765   20.6219 C.3     1  UNL1        0.0528
     20 C          -4.5666    3.6185   25.1642 C.3     1  UNL1        0.0779
     21 C          -4.5713    4.1234   23.7518 C.2     1  UNL1        0.1807
     22 O          -5.6742    5.0244   23.2810 O.2     1  UNL1       -0.2908
     23 C           2.7341   -0.9107   22.6050 C.3     1  UNL1        0.0738
     24 N           3.4148    0.0808   23.5015 N.3     1  UNL1       -0.2726
     25 C           4.8757    0.3720   23.3251 C.3     1  UNL1        0.0721
     26 C           5.5563    1.3634   24.2217 C.3     1  UNL1        0.0174
     27 C           4.7761    2.0636   25.2946 C.3     1  UNL1        0.0031
     28 C           3.3153    1.7724   25.4709 C.3     1  UNL1        0.0204
     29 C           2.6346    0.7810   24.5744 C.3     1  UNL1        0.0724
     30 C           2.5351    2.4726   26.5438 C.3     1  UNL1        0.0277
     31 C           1.3857    1.7767   27.2107 C.ar    1  UNL1       -0.0220
     32 C          -0.0148    2.2709   26.9996 C.ar    1  UNL1       -0.0020
     33 C          -1.1641    1.5750   27.6665 C.ar    1  UNL1        0.0293
     34 C          -0.9130    0.3850   28.5445 C.ar    1  UNL1        0.1401
     35 F          -2.0624   -0.3109   29.2113 F       1  UNL1       -0.2042
     36 C           0.4874   -0.1092   28.7555 C.ar    1  UNL1        0.0293
     37 C           1.6368    0.5867   28.0886 C.ar    1  UNL1       -0.0020
@<TRIPOS>BOND
     1    20    21    1
     2    21    22    2
     3    21    14    1
     4    14    15   ar
     5    15    16   ar
     6    16     8    1
     7     8     9   am
     8     9    10    2
     9     9    11   am
    10     1    11    1
    11     1     2    1
    12     2     3    1
    13     3     4    1
    14     3     5    1
    15     5     6    1
    16     6     7    1
    17     7    23    1
    18    23    24    1
    19    24    25    1
    20    25    26    1
    21    26    27    1
    22    27    28    1
    23    28    30    1
    24    30    31    1
    25    31    32   ar
    26    32    33   ar
    27    33    34   ar
    28    34    35    1
    29    34    36   ar
    30    36    37   ar
    31    28    29    1
    32    16    17   ar
    33    17    18   ar
    34    18    19    1
    35    18    14   ar
    36     7     1    1
    37    29    24    1
    38    37    31   ar
    39     8    12    1
    40    11    13    1
@<TRIPOS>MOLECULE
*****
 37 40 0 0 0
SMALL
GASTEIGER

@<TRIPOS>ATOM
      1 C           3.7002   -0.3293   21.1988 C.3     1  UNL1        0.0903
      2 C           5.1689   -0.6331   21.1826 C.3     1  UNL1        0.0920
      3 N           5.6934   -1.7546   20.3357 N.3     1  UNL1       -0.2701
      4 C           7.1623   -2.0585   20.3195 C.3     1  UNL1        0.0897
      5 C           4.7492   -2.5722   19.5051 C.3     1  UNL1        0.0723
      6 C           3.2804   -2.2684   19.5214 C.3     1  UNL1        0.0204
      7 C           2.7559   -1.1469   20.3682 C.3     1  UNL1        0.0368
      8 N           2.1550    1.6365   24.2807 N.am    1  UNL1       -0.2485
      9 C           2.6796    0.5151   23.4339 C.2     1  UNL1        0.3059
     10 O           2.7081   -0.8836   23.9752 O.2     1  UNL1       -0.2524
     11 N           3.1756    0.7922   22.0457 N.am    1  UNL1       -0.2889
     12 H           2.1363    2.5545   23.9254 H       1  UNL1        0.1583
     13 H           3.1569    1.7102   21.6903 H       1  UNL1        0.1510
     14 C           1.6012    0.9427   28.0593 C.ar    1  UNL1        0.0803
     15 S           2.5090    1.2124   26.8960 S.2     1  UNL1       -0.0488
     16 C           1.6590    1.3594   25.6689 C.ar    1  UNL1        0.1664
     17 N           0.2258    1.1805   26.0738 N.ar    1  UNL1       -0.2282
     18 C           0.1901    0.9230   27.5511 C.ar    1  UNL1        0.0701
     19 C          -1.0407    0.6872   28.3755 C.3     1  UNL1        0.0528
     20 C           2.8247    1.7856   30.1906 C.3     1  UNL1        0.0779
     21 C           2.0294    0.7301   29.4811 C.2     1  UNL1        0.1807
     22 O           1.6624   -0.5379   30.1932 O.2     1  UNL1       -0.2908
     23 C           1.2870   -0.8430   20.3845 C.3     1  UNL1        0.0738
     24 N           0.8004    0.5266   20.0138 N.3     1  UNL1       -0.2726
     25 C           0.9540    1.0216   18.6061 C.3     1  UNL1        0.0721
     26 C           0.4673    2.3912   18.2354 C.3     1  UNL1        0.0174
     27 C          -0.1728    3.2658   19.2724 C.3     1  UNL1        0.0031
     28 C          -0.3264    2.7708   20.6800 C.3     1  UNL1        0.0204
     29 C           0.1603    1.4012   21.0507 C.3     1  UNL1        0.0724
     30 C          -0.9666    3.6454   21.7170 C.3     1  UNL1        0.0277
     31 C          -2.4559    3.6305   21.8951 C.ar    1  UNL1       -0.0220
     32 C          -3.3435    3.2263   20.7553 C.ar    1  UNL1       -0.0020
     33 C          -4.8328    3.2114   20.9334 C.ar    1  UNL1        0.0293
     34 C          -5.4345    3.6005   22.2512 C.ar    1  UNL1        0.1401
     35 F          -6.9238    3.5856   22.4293 F       1  UNL1       -0.2042
     36 C          -4.5469    4.0047   23.3909 C.ar    1  UNL1        0.0293
     37 C          -3.0576    4.0196   23.2128 C.ar    1  UNL1       -0.0020
@<TRIPOS>BOND
     1    20    21    1
     2    21    22    2
     3    21    14    1
     4    14    15   ar
     5    15    16   ar
     6    16     8    1
     7     8     9   am
     8     9    10    2
     9     9    11   am
    10     1    11    1
    11     1     2    1
    12     2     3    1
    13     3     4    1
    14     3     5    1
    15     5     6    1
    16     6     7    1
    17     7    23    1
    18    23    24    1
    19    24    25    1
    20    25    26    1
    21    26    27    1
    22    27    28    1
    23    28    30    1
    24    30    31    1
    25    31    32   ar
    26    32    33   ar
    27    33    34   ar
    28    34    35    1
    29    34    36   ar
    30    36    37   ar
    31    28    29    1
    32    16    17   ar
    33    17    18   ar
    34    18    19    1
    35    18    14   ar
    36     7     1    1
    37    29    24    1
    38    37    31   ar
    39     8    12    1
    40    11    13    1
@<TRIPOS>MOLECULE
*****
 37 40 0 0 0
SMALL
GASTEIGER

@<TRIPOS>ATOM
      1 C           6.6684   -2.2541   29.0556 C.3     1  UNL1        0.0903
      2 C           6.6882   -3.6285   29.6560 C.3     1  UNL1        0.0920
      3 N           7.5599   -4.6944   29.0609 N.3     1  UNL1       -0.2701
      4 C           7.5797   -6.0689   29.6613 C.3     1  UNL1        0.0897
      5 C           8.4119   -4.3857   27.8656 C.3     1  UNL1        0.0723
      6 C           8.3921   -3.0113   27.2652 C.3     1  UNL1        0.0204
      7 C           7.5204   -1.9455   27.8602 C.3     1  UNL1        0.0368
      8 N           3.5474    0.1111   29.6998 N.am    1  UNL1       -0.2485
      9 C           4.4192   -0.9547   29.1049 C.2     1  UNL1        0.3059
     10 O           3.9134   -1.7871   27.9641 O.2     1  UNL1       -0.2524
     11 N           5.7967   -1.1882   29.6506 N.am    1  UNL1       -0.2889
     12 H           3.8794    0.6575   30.4485 H       1  UNL1        0.1583
     13 H           6.1287   -0.6419   30.3993 H       1  UNL1        0.1510
     14 C           0.3342    1.1625   27.7931 C.ar    1  UNL1        0.0803
     15 S           1.8199    1.2238   27.9902 S.2     1  UNL1       -0.0488
     16 C           2.1699    0.3446   29.1540 C.ar    1  UNL1        0.1664
     17 N           0.9004   -0.2601   29.6763 N.ar    1  UNL1       -0.2282
     18 C          -0.2341    0.2454   28.8352 C.ar    1  UNL1        0.0701
     19 C          -1.6826   -0.1048   29.0062 C.3     1  UNL1        0.0528
     20 C          -1.1763    3.1542   27.0852 C.3     1  UNL1        0.0779
     21 C          -0.4462    1.8904   26.7391 C.2     1  UNL1        0.1807
     22 O          -0.4965    1.3547   25.3390 O.2     1  UNL1       -0.2908
     23 C           7.5006   -0.5709   27.2599 C.3     1  UNL1        0.0738
     24 N           7.1515   -0.3897   25.8123 N.3     1  UNL1       -0.2726
     25 C           8.1580    0.1938   24.8655 C.3     1  UNL1        0.0721
     26 C           7.8089    0.3750   23.4179 C.3     1  UNL1        0.0174
     27 C           6.4533   -0.0273   22.9173 C.3     1  UNL1        0.0031
     28 C           5.4469   -0.6109   23.8642 C.3     1  UNL1        0.0204
     29 C           5.7960   -0.7920   25.3117 C.3     1  UNL1        0.0724
     30 C           4.0913   -1.0132   23.3636 C.3     1  UNL1        0.0277
     31 C           3.9692   -1.9064   22.1647 C.ar    1  UNL1       -0.0220
     32 C           3.2703   -1.4153   20.9316 C.ar    1  UNL1       -0.0020
     33 C           3.1483   -2.3085   19.7327 C.ar    1  UNL1        0.0293
     34 C           3.7251   -3.6928   19.7669 C.ar    1  UNL1        0.1401
     35 F           3.6031   -4.5860   18.5681 F       1  UNL1       -0.2042
     36 C           4.4239   -4.1838   21.0000 C.ar    1  UNL1        0.0293
     37 C           4.5460   -3.2906   22.1989 C.ar    1  UNL1       -0.0020
@<TRIPOS>BOND
     1    20    21    1
     2    21    22    2
     3    21    14    1
     4    14    15   ar
     5    15    16   ar
     6    16     8    1
     7     8     9   am
     8     9    10    2
     9     9    11   am
    10     1    11    1
    11     1     2    1
    12     2     3    1
    13     3     4    1
    14     3     5    1
    15     5     6    1
    16     6     7    1
    17     7    23    1
    18    23    24    1
    19    24    25    1
    20    25    26    1
    21    26    27    1
    22    27    28    1
    23    28    30    1
    24    30    31    1
    25    31    32   ar
    26    32    33   ar
    27    33    34   ar
    28    34    35    1
    29    34    36   ar
    30    36    37   ar
    31    28    29    1
    32    16    17   ar
    33    17    18   ar
    34    18    19    1
    35    18    14   ar
    36     7     1    1
    37    29    24    1
    38    37    31   ar
    39     8    12    1
    40    11    13    1
@<TRIPOS>MOLECULE
*****
 37 40 0 0 0
SMALL
GASTEIGER

@<TRIPOS>ATOM
      1 C          -0.2995    2.2015   25.6862 C.3     1  UNL1        0.0903
      2 C          -1.6306    2.4854   26.3166 C.3     1  UNL1        0.0920
      3 N          -2.3762    3.7379   25.9626 N.3     1  UNL1       -0.2701
      4 C          -3.7074    4.0219   26.5931 C.3     1  UNL1        0.0897
      5 C          -1.7908    4.7064   24.9782 C.3     1  UNL1        0.0723
      6 C          -0.4597    4.4225   24.3477 C.3     1  UNL1        0.0204
      7 C           0.2860    3.1701   24.7017 C.3     1  UNL1        0.0368
      8 N           2.0795   -0.3315   27.6031 N.am    1  UNL1       -0.2485
      9 C           1.3338    0.9209   27.2491 C.2     1  UNL1        0.3059
     10 O           1.4757    2.1454   28.1040 O.2     1  UNL1       -0.2524
     11 N           0.4462    0.9490   26.0402 N.am    1  UNL1       -0.2889
     12 H           1.9863   -1.1351   27.0420 H       1  UNL1        0.1583
     13 H           0.3531    0.1454   25.4791 H       1  UNL1        0.1510
     14 C           3.7347   -0.5220   31.1087 C.ar    1  UNL1        0.0803
     15 S           2.5209   -0.5690   30.2287 S.2     1  UNL1       -0.0488
     16 C           2.9670   -0.3596   28.8120 C.ar    1  UNL1        0.1664
     17 N           4.4566   -0.1832   28.8164 N.ar    1  UNL1       -0.2282
     18 C           4.9311   -0.2836   30.2359 C.ar    1  UNL1        0.0701
     19 C           6.3524   -0.1661   30.7008 C.3     1  UNL1        0.0528
     20 C           3.7107    0.5242   33.4867 C.3     1  UNL1        0.0779
     21 C           3.7496   -0.6849   32.5998 C.2     1  UNL1        0.1807
     22 O           3.8032   -2.0567   33.2039 O.2     1  UNL1       -0.2908
     23 C           1.6172    2.8861   24.0713 C.3     1  UNL1        0.0738
     24 N           1.7273    1.8620   22.9808 N.3     1  UNL1       -0.2726
     25 C           0.5088    1.4592   22.2043 C.3     1  UNL1        0.0721
     26 C           0.6190    0.4351   21.1138 C.3     1  UNL1        0.0174
     27 C           1.9477   -0.1861   20.7998 C.3     1  UNL1        0.0031
     28 C           3.1662    0.2168   21.5763 C.3     1  UNL1        0.0204
     29 C           3.0560    1.2408   22.6668 C.3     1  UNL1        0.0724
     30 C           4.4950   -0.4045   21.2623 C.3     1  UNL1        0.0277
     31 C           4.5580   -1.6997   20.5083 C.ar    1  UNL1       -0.0220
     32 C           4.9725   -1.7089   19.0667 C.ar    1  UNL1       -0.0020
     33 C           5.0355   -3.0041   18.3128 C.ar    1  UNL1        0.0293
     34 C           4.6839   -4.2901   19.0004 C.ar    1  UNL1        0.1401
     35 F           4.7468   -5.5853   18.2464 F       1  UNL1       -0.2042
     36 C           4.2693   -4.2808   20.4419 C.ar    1  UNL1        0.0293
     37 C           4.2064   -2.9856   21.1959 C.ar    1  UNL1       -0.0020
@<TRIPOS>BOND
     1    20    21    1
     2    21    22    2
     3    21    14    1
     4    14    15   ar
     5    15    16   ar
     6    16     8    1
     7     8     9   am
     8     9    10    2
     9     9    11   am
    10     1    11    1
    11     1     2    1
    12     2     3    1
    13     3     4    1
    14     3     5    1
    15     5     6    1
    16     6     7    1
    17     7    23    1
    18    23    24    1
    19    24    25    1
    20    25    26    1
    21    26    27    1
    22    27    28    1
    23    28    30    1
    24    30    31    1
    25    31    32   ar
    26    32    33   ar
    27    33    34   ar
    28    34    35    1
    29    34    36   ar
    30    36    37   ar
    31    28    29    1
    32    16    17   ar
    33    17    18   ar
    34    18    19    1
    35    18    14   ar
    36     7     1    1
    37    29    24    1
    38    37    31   ar
    39     8    12    1
    40    11    13    1
