@<TRIPOS>MOLECULE
*****
 21 22 0 0 0
SMALL
GASTEIGER

@<TRIPOS>ATOM
      1 C         -10.5362  -17.3160   22.8287 C.3     1  UNL1        0.0718
      2 C         -11.5413  -18.4067   23.0529 C.3     1  UNL1        0.0257
      3 C         -12.9109  -17.8102   22.9163 C.3     1  UNL1        0.0690
      4 N         -12.7521  -16.3509   22.6077 N.3     1  UNL1       -0.2971
      5 C         -11.2846  -16.0455   22.5536 C.3     1  UNL1        0.0759
      6 H         -13.1951  -15.7926   23.3374 H       1  UNL1        0.1233
      7 C          -9.3216  -16.4533   22.6544 C.2     1  UNL1        0.1795
      8 O          -8.9391  -15.9636   21.2892 O.2     1  UNL1       -0.2908
      9 C          -8.4894  -16.0803   23.8454 C.ar    1  UNL1        0.0658
     10 C          -8.9914  -15.8845   25.2453 C.ar    1  UNL1        0.0221
     11 C          -7.8214  -15.5208   26.1106 C.ar    1  UNL1        0.0749
     12 CL         -7.8682  -15.2361   27.5826 Cl      1  UNL1       -0.0808
     13 C          -6.5963  -15.4918   25.2455 C.ar    1  UNL1        0.0976
     14 CL         -5.2030  -15.1730   25.7006 Cl      1  UNL1       -0.0743
     15 S          -7.0092  -15.8376   23.8455 S.2     1  UNL1       -0.0718
     16 C          -9.5339  -18.4062   23.0674 C.3     1  UNL1        0.0087
     17 C          -9.3756  -19.5118   22.0661 C.3     1  UNL1        0.0005
     18 C          -7.2554  -19.5385   22.1277 C.3     1  UNL1        0.0000
     19 C          -8.2838  -19.4434   21.0398 C.3     1  UNL1        0.0000
     20 C          -9.3121  -19.3483   19.9520 C.3     1  UNL1        0.0000
     21 C          -7.1919  -19.3750   20.0136 C.3     1  UNL1        0.0000
@<TRIPOS>BOND
     1    18    19    1
     2    19    20    1
     3    19    21    1
     4    19    17    1
     5    17    16    1
     6    16     1    1
     7     1     7    1
     8     7     8    2
     9     7     9    1
    10     9    10   ar
    11    10    11   ar
    12    11    12    1
    13    11    13   ar
    14    13    14    1
    15    13    15   ar
    16     1     2    1
    17     2     3    1
    18     3     4    1
    19     4     5    1
    20     5     1    1
    21    15     9   ar
    22     4     6    1
@<TRIPOS>MOLECULE
*****
 21 22 0 0 0
SMALL
GASTEIGER

@<TRIPOS>ATOM
      1 C          -8.5938  -16.6539   23.6644 C.3     1  UNL1        0.0718
      2 C          -8.9795  -16.4820   25.1037 C.3     1  UNL1        0.0257
      3 C          -8.4185  -15.1752   25.5811 C.3     1  UNL1        0.0690
      4 N          -7.6861  -14.5396   24.4367 N.3     1  UNL1       -0.2971
      5 C          -7.7945  -15.4534   23.2521 C.3     1  UNL1        0.0759
      6 H          -6.7053  -14.4081   24.6838 H       1  UNL1        0.1233
      7 C          -8.3653  -17.0961   22.2494 C.2     1  UNL1        0.1795
      8 O          -9.1953  -16.5206   21.1404 O.2     1  UNL1       -0.2908
      9 C          -7.3067  -18.1138   21.9433 C.ar    1  UNL1        0.0658
     10 C          -5.9236  -18.1489   22.5228 C.ar    1  UNL1        0.0221
     11 C          -5.2076  -19.3319   21.9417 C.ar    1  UNL1        0.0749
     12 CL         -3.7983  -19.7462   22.2457 Cl      1  UNL1       -0.0808
     13 C          -6.1481  -20.0280   21.0031 C.ar    1  UNL1        0.0976
     14 CL         -5.8445  -21.2605   20.2039 Cl      1  UNL1       -0.0743
     15 S          -7.4455  -19.2751   21.0041 S.2     1  UNL1       -0.0718
     16 C          -9.3454  -17.9468   23.7808 C.3     1  UNL1        0.0087
     17 C         -10.8383  -17.9359   23.9277 C.3     1  UNL1        0.0005
     18 C         -11.1862  -19.4468   22.4800 C.3     1  UNL1        0.0000
     19 C         -11.7120  -18.0618   22.7149 C.3     1  UNL1        0.0000
     20 C         -12.2379  -16.6769   22.9499 C.3     1  UNL1        0.0000
     21 C         -12.5858  -18.1878   21.5022 C.3     1  UNL1        0.0000
@<TRIPOS>BOND
     1    18    19    1
     2    19    20    1
     3    19    21    1
     4    19    17    1
     5    17    16    1
     6    16     1    1
     7     1     7    1
     8     7     8    2
     9     7     9    1
    10     9    10   ar
    11    10    11   ar
    12    11    12    1
    13    11    13   ar
    14    13    14    1
    15    13    15   ar
    16     1     2    1
    17     2     3    1
    18     3     4    1
    19     4     5    1
    20     5     1    1
    21    15     9   ar
    22     4     6    1
@<TRIPOS>MOLECULE
*****
 21 22 0 0 0
SMALL
GASTEIGER

@<TRIPOS>ATOM
      1 C          -9.0127  -17.8100   22.0436 C.3     1  UNL1        0.0718
      2 C          -9.3058  -19.2586   21.7872 C.3     1  UNL1        0.0257
      3 C         -10.7555  -19.3807   21.4219 C.3     1  UNL1        0.0690
      4 N         -11.3583  -18.0075   21.4525 N.3     1  UNL1       -0.2971
      5 C         -10.2813  -17.0368   21.8367 C.3     1  UNL1        0.0759
      6 H         -12.1131  -17.9760   22.1378 H       1  UNL1        0.1233
      7 C          -8.4289  -16.4643   22.3568 C.2     1  UNL1        0.1795
      8 O          -8.3022  -15.4318   21.2762 O.2     1  UNL1       -0.2908
      9 C          -7.9717  -16.1512   23.7507 C.ar    1  UNL1        0.0658
     10 C          -8.7687  -16.3506   25.0057 C.ar    1  UNL1        0.0221
     11 C          -7.9267  -15.9063   26.1649 C.ar    1  UNL1        0.0749
     12 CL         -8.3311  -15.9315   27.6092 Cl      1  UNL1       -0.0808
     13 C          -6.6094  -15.4322   25.6264 C.ar    1  UNL1        0.0976
     14 CL         -5.4653  -14.9003   26.4375 Cl      1  UNL1       -0.0743
     15 S          -6.6372  -15.5836   24.1343 S.2     1  UNL1       -0.0718
     16 C          -7.6221  -18.3020   22.3159 C.3     1  UNL1        0.0087
     17 C          -7.1532  -19.5950   21.7172 C.3     1  UNL1        0.0005
     18 C          -6.1338  -20.7883   20.2901 C.3     1  UNL1        0.0000
     19 C          -5.7233  -19.7491   21.2909 C.3     1  UNL1        0.0000
     20 C          -5.3129  -18.7100   22.2917 C.3     1  UNL1        0.0000
     21 C          -4.2935  -19.9033   20.8645 C.3     1  UNL1        0.0000
@<TRIPOS>BOND
     1    18    19    1
     2    19    20    1
     3    19    21    1
     4    19    17    1
     5    17    16    1
     6    16     1    1
     7     1     7    1
     8     7     8    2
     9     7     9    1
    10     9    10   ar
    11    10    11   ar
    12    11    12    1
    13    11    13   ar
    14    13    14    1
    15    13    15   ar
    16     1     2    1
    17     2     3    1
    18     3     4    1
    19     4     5    1
    20     5     1    1
    21    15     9   ar
    22     4     6    1
@<TRIPOS>MOLECULE
*****
 21 22 0 0 0
SMALL
GASTEIGER

@<TRIPOS>ATOM
      1 C          -9.8618  -17.5760   23.0715 C.3     1  UNL1        0.0718
      2 C         -10.7961  -17.9531   24.1828 C.3     1  UNL1        0.0257
      3 C         -12.1261  -18.2894   23.5761 C.3     1  UNL1        0.0690
      4 N         -12.0137  -18.1202   22.0899 N.3     1  UNL1       -0.2971
      5 C         -10.6143  -17.6793   21.7781 C.3     1  UNL1        0.0759
      6 H         -12.6780  -17.4151   21.7706 H       1  UNL1        0.1233
      7 C          -8.7202  -17.1591   22.1923 C.2     1  UNL1        0.1795
      8 O          -8.7151  -15.7964   21.5656 O.2     1  UNL1       -0.2908
      9 C          -7.5838  -18.1050   21.9398 C.ar    1  UNL1        0.0658
     10 C          -6.2191  -18.0286   22.5579 C.ar    1  UNL1        0.0221
     11 C          -5.4044  -19.1698   22.0250 C.ar    1  UNL1        0.0749
     12 CL         -3.9789  -19.4756   22.3775 Cl      1  UNL1       -0.0808
     13 C          -6.2655  -19.9515   21.0776 C.ar    1  UNL1        0.0976
     14 CL         -5.8522  -21.1762   20.3165 Cl      1  UNL1       -0.0743
     15 S          -7.6124  -19.2934   21.0250 S.2     1  UNL1       -0.0718
     16 C          -8.8706  -17.3856   24.1812 C.3     1  UNL1        0.0087
     17 C          -8.8819  -16.1211   24.9882 C.3     1  UNL1        0.0005
     18 C          -8.4534  -16.5236   27.0263 C.3     1  UNL1        0.0000
     19 C          -7.7426  -15.8119   25.9136 C.3     1  UNL1        0.0000
     20 C          -7.0318  -15.1002   24.8009 C.3     1  UNL1        0.0000
     21 C          -6.6034  -15.5027   26.8391 C.3     1  UNL1        0.0000
@<TRIPOS>BOND
     1    18    19    1
     2    19    20    1
     3    19    21    1
     4    19    17    1
     5    17    16    1
     6    16     1    1
     7     1     7    1
     8     7     8    2
     9     7     9    1
    10     9    10   ar
    11    10    11   ar
    12    11    12    1
    13    11    13   ar
    14    13    14    1
    15    13    15   ar
    16     1     2    1
    17     2     3    1
    18     3     4    1
    19     4     5    1
    20     5     1    1
    21    15     9   ar
    22     4     6    1
@<TRIPOS>MOLECULE
*****
 21 22 0 0 0
SMALL
GASTEIGER

@<TRIPOS>ATOM
      1 C          -6.7053  -15.9624   24.0596 C.3     1  UNL1        0.0718
      2 C          -5.4598  -16.0254   24.8931 C.3     1  UNL1        0.0257
      3 C          -5.7368  -15.3318   26.1939 C.3     1  UNL1        0.0690
      4 N          -7.1537  -14.8401   26.1643 N.3     1  UNL1       -0.2971
      5 C          -7.7522  -15.2298   24.8453 C.3     1  UNL1        0.0759
      6 H          -7.1700  -13.8252   26.2655 H       1  UNL1        0.1233
      7 C          -7.7789  -16.0566   23.0163 C.2     1  UNL1        0.1795
      8 O          -7.6920  -15.2216   21.7732 O.2     1  UNL1       -0.2908
      9 C          -8.9394  -16.9858   23.2160 C.ar    1  UNL1        0.0658
     10 C          -8.8526  -18.4460   23.5482 C.ar    1  UNL1        0.0221
     11 C         -10.2499  -18.9806   23.6561 C.ar    1  UNL1        0.0749
     12 CL        -10.6302  -20.3964   23.9737 Cl      1  UNL1       -0.0808
     13 C         -11.2003  -17.8508   23.3907 C.ar    1  UNL1        0.0976
     14 CL        -12.6977  -17.9385   23.3963 Cl      1  UNL1       -0.0743
     15 S         -10.3903  -16.6180   23.1187 S.2     1  UNL1       -0.0718
     16 C          -5.8829  -16.7147   23.0558 C.3     1  UNL1        0.0087
     17 C          -4.5356  -17.2505   23.4405 C.3     1  UNL1        0.0005
     18 C          -2.5469  -17.7672   22.9132 C.3     1  UNL1        0.0000
     19 C          -3.9030  -18.3419   22.6290 C.3     1  UNL1        0.0000
     20 C          -5.2590  -18.9166   22.3447 C.3     1  UNL1        0.0000
     21 C          -3.2703  -19.4334   21.8175 C.3     1  UNL1        0.0000
@<TRIPOS>BOND
     1    18    19    1
     2    19    20    1
     3    19    21    1
     4    19    17    1
     5    17    16    1
     6    16     1    1
     7     1     7    1
     8     7     8    2
     9     7     9    1
    10     9    10   ar
    11    10    11   ar
    12    11    12    1
    13    11    13   ar
    14    13    14    1
    15    13    15   ar
    16     1     2    1
    17     2     3    1
    18     3     4    1
    19     4     5    1
    20     5     1    1
    21    15     9   ar
    22     4     6    1
@<TRIPOS>MOLECULE
*****
 21 22 0 0 0
SMALL
GASTEIGER

@<TRIPOS>ATOM
      1 C         -10.4600  -17.6333   22.2214 C.3     1  UNL1        0.0718
      2 C         -10.5754  -17.8669   20.7442 C.3     1  UNL1        0.0257
      3 C         -11.4606  -16.7987   20.1737 C.3     1  UNL1        0.0690
      4 N         -11.8923  -15.9050   21.2984 N.3     1  UNL1       -0.2971
      5 C         -11.2739  -16.4207   22.5639 C.3     1  UNL1        0.0759
      6 H         -12.9089  -15.9175   21.3798 H       1  UNL1        0.1233
      7 C         -10.1614  -17.6542   23.6912 C.2     1  UNL1        0.1795
      8 O         -11.0572  -18.4094   24.6278 O.2     1  UNL1       -0.2908
      9 C          -8.9671  -16.9198   24.2244 C.ar    1  UNL1        0.0658
     10 C          -7.7608  -16.5070   23.4341 C.ar    1  UNL1        0.0221
     11 C          -6.8175  -15.8014   24.3628 C.ar    1  UNL1        0.0749
     12 CL         -5.4849  -15.2210   23.9923 Cl      1  UNL1       -0.0808
     13 C          -7.4408  -15.7782   25.7270 C.ar    1  UNL1        0.0976
     14 CL         -6.8409  -15.1705   26.9601 Cl      1  UNL1       -0.0743
     15 S          -8.7693  -16.4694   25.6414 S.2     1  UNL1       -0.0718
     16 C          -9.5837  -18.8502   22.1861 C.3     1  UNL1        0.0087
     17 C          -8.6331  -19.0571   21.0443 C.3     1  UNL1        0.0005
     18 C          -6.8134  -19.1567   19.9586 C.3     1  UNL1        0.0000
     19 C          -7.2807  -19.6563   21.2936 C.3     1  UNL1        0.0000
     20 C          -7.7480  -20.1558   22.6285 C.3     1  UNL1        0.0000
     21 C          -5.9283  -20.2554   21.5428 C.3     1  UNL1        0.0000
@<TRIPOS>BOND
     1    18    19    1
     2    19    20    1
     3    19    21    1
     4    19    17    1
     5    17    16    1
     6    16     1    1
     7     1     7    1
     8     7     8    2
     9     7     9    1
    10     9    10   ar
    11    10    11   ar
    12    11    12    1
    13    11    13   ar
    14    13    14    1
    15    13    15   ar
    16     1     2    1
    17     2     3    1
    18     3     4    1
    19     4     5    1
    20     5     1    1
    21    15     9   ar
    22     4     6    1
@<TRIPOS>MOLECULE
*****
 21 22 0 0 0
SMALL
GASTEIGER

@<TRIPOS>ATOM
      1 C          -7.4645  -16.5720   23.8884 C.3     1  UNL1        0.0718
      2 C          -6.0582  -16.4255   23.3875 C.3     1  UNL1        0.0257
      3 C          -5.4917  -15.1599   23.9597 C.3     1  UNL1        0.0690
      4 N          -6.5481  -14.5242   24.8141 N.3     1  UNL1       -0.2971
      5 C          -7.7672  -15.3968   24.7701 C.3     1  UNL1        0.0759
      6 H          -6.7730  -13.5968   24.4538 H       1  UNL1        0.1233
      7 C          -8.8689  -16.9820   24.2193 C.2     1  UNL1        0.1795
      8 O          -9.2110  -17.4323   25.6086 O.2     1  UNL1       -0.2908
      9 C          -9.9311  -16.9418   23.1609 C.ar    1  UNL1        0.0658
     10 C          -9.8437  -16.2159   21.8512 C.ar    1  UNL1        0.0221
     11 C         -11.1257  -16.4459   21.1074 C.ar    1  UNL1        0.0749
     12 CL        -11.4680  -15.9032   19.7515 Cl      1  UNL1       -0.0808
     13 C         -12.0055  -17.3140   21.9573 C.ar    1  UNL1        0.0976
     14 CL        -13.3819  -17.7917   21.6007 Cl      1  UNL1       -0.0743
     15 S         -11.2671  -17.6205   23.2265 S.2     1  UNL1       -0.0718
     16 C          -7.4553  -17.8328   23.0758 C.3     1  UNL1        0.0087
     17 C          -6.1954  -18.2757   22.3927 C.3     1  UNL1        0.0005
     18 C          -7.7133  -19.4074   21.4362 C.3     1  UNL1        0.0000
     19 C          -6.2152  -19.4674   21.4820 C.3     1  UNL1        0.0000
     20 C          -4.7172  -19.5275   21.5277 C.3     1  UNL1        0.0000
     21 C          -6.2352  -20.6591   20.5712 C.3     1  UNL1        0.0000
@<TRIPOS>BOND
     1    18    19    1
     2    19    20    1
     3    19    21    1
     4    19    17    1
     5    17    16    1
     6    16     1    1
     7     1     7    1
     8     7     8    2
     9     7     9    1
    10     9    10   ar
    11    10    11   ar
    12    11    12    1
    13    11    13   ar
    14    13    14    1
    15    13    15   ar
    16     1     2    1
    17     2     3    1
    18     3     4    1
    19     4     5    1
    20     5     1    1
    21    15     9   ar
    22     4     6    1
@<TRIPOS>MOLECULE
*****
 21 22 0 0 0
SMALL
GASTEIGER

@<TRIPOS>ATOM
      1 C          -9.7170  -19.2304   22.1045 C.3     1  UNL1        0.0718
      2 C          -9.4545  -19.3715   20.6344 C.3     1  UNL1        0.0257
      3 C         -10.7128  -19.0100   19.9021 C.3     1  UNL1        0.0690
      4 N         -11.7527  -18.6455   20.9197 N.3     1  UNL1       -0.2971
      5 C         -11.1374  -18.7817   22.2808 C.3     1  UNL1        0.0759
      6 H         -12.5527  -19.2729   20.8372 H       1  UNL1        0.1233
      7 C          -9.6808  -19.1810   23.6033 C.2     1  UNL1        0.1795
      8 O         -10.1593  -20.3555   24.4042 O.2     1  UNL1       -0.2908
      9 C          -9.1662  -17.9569   24.3011 C.ar    1  UNL1        0.0658
     10 C          -9.1879  -17.7108   25.7806 C.ar    1  UNL1        0.0221
     11 C          -8.5746  -16.3659   26.0357 C.ar    1  UNL1        0.0749
     12 CL         -8.3938  -15.7195   27.3772 Cl      1  UNL1       -0.0808
     13 C          -8.1740  -15.7808   24.7140 C.ar    1  UNL1        0.0976
     14 CL         -7.5222  -14.4466   24.5016 Cl      1  UNL1       -0.0743
     15 S          -8.5396  -16.7641   23.6419 S.2     1  UNL1       -0.0718
     16 C          -8.2890  -19.6688   22.2415 C.3     1  UNL1        0.0087
     17 C          -7.3618  -19.5824   21.0655 C.3     1  UNL1        0.0005
     18 C          -5.9250  -20.9643   20.3405 C.3     1  UNL1        0.0000
     19 C          -5.8870  -19.7777   21.2574 C.3     1  UNL1        0.0000
     20 C          -5.8490  -18.5912   22.1742 C.3     1  UNL1        0.0000
     21 C          -4.4122  -19.9732   21.4492 C.3     1  UNL1        0.0000
@<TRIPOS>BOND
     1    18    19    1
     2    19    20    1
     3    19    21    1
     4    19    17    1
     5    17    16    1
     6    16     1    1
     7     1     7    1
     8     7     8    2
     9     7     9    1
    10     9    10   ar
    11    10    11   ar
    12    11    12    1
    13    11    13   ar
    14    13    14    1
    15    13    15   ar
    16     1     2    1
    17     2     3    1
    18     3     4    1
    19     4     5    1
    20     5     1    1
    21    15     9   ar
    22     4     6    1
@<TRIPOS>MOLECULE
*****
 21 22 0 0 0
SMALL
GASTEIGER

@<TRIPOS>ATOM
      1 C           3.0454   -0.5459   18.7155 C.3     1  UNL1        0.0718
      2 C           2.3386   -0.9255   19.9830 C.3     1  UNL1        0.0257
      3 C           1.0012   -0.2463   19.9892 C.3     1  UNL1        0.0690
      4 N           0.8815    0.5530   18.7255 N.3     1  UNL1       -0.2971
      5 C           2.1448    0.3678   17.9384 C.3     1  UNL1        0.0759
      6 H           0.7555    1.5398   18.9508 H       1  UNL1        0.1233
      7 C           3.9813   -0.3489   17.5600 C.2     1  UNL1        0.1795
      8 O           3.7600   -1.0979   16.2794 O.2     1  UNL1       -0.2908
      9 C           5.1386    0.5972   17.6851 C.ar    1  UNL1        0.0658
     10 C           5.1730    1.8425   18.5207 C.ar    1  UNL1        0.0221
     11 C           6.5203    2.4790   18.3486 C.ar    1  UNL1        0.0749
     12 CL          6.9874    3.7451   19.0034 Cl      1  UNL1       -0.0808
     13 C           7.3186    1.6271   17.4068 C.ar    1  UNL1        0.0976
     14 CL          8.7241    1.8917   16.9544 Cl      1  UNL1       -0.0743
     15 S           6.4646    0.4641   16.9967 S.2     1  UNL1       -0.0718
     16 C           4.1416   -1.4185   19.2511 C.3     1  UNL1        0.0087
     17 C           3.8103   -2.7441   19.8702 C.3     1  UNL1        0.0005
     18 C           5.7598   -3.4847   19.4818 C.3     1  UNL1        0.0000
     19 C           4.3677   -4.0066   19.2824 C.3     1  UNL1        0.0000
     20 C           2.9757   -4.5284   19.0830 C.3     1  UNL1        0.0000
     21 C           4.9252   -5.2690   18.6946 C.3     1  UNL1        0.0000
@<TRIPOS>BOND
     1    18    19    1
     2    19    20    1
     3    19    21    1
     4    19    17    1
     5    17    16    1
     6    16     1    1
     7     1     7    1
     8     7     8    2
     9     7     9    1
    10     9    10   ar
    11    10    11   ar
    12    11    12    1
    13    11    13   ar
    14    13    14    1
    15    13    15   ar
    16     1     2    1
    17     2     3    1
    18     3     4    1
    19     4     5    1
    20     5     1    1
    21    15     9   ar
    22     4     6    1
