@<TRIPOS>MOLECULE
*****
 26 28 0 0 0
SMALL
GASTEIGER

@<TRIPOS>ATOM
      1 C          -7.0519  -18.0396   22.6203 C.ar    1  UNL1        0.0053
      2 C          -6.0267  -18.6204   21.6922 C.ar    1  UNL1        0.0456
      3 C          -4.5792  -18.2625   21.8551 C.ar    1  UNL1        0.1328
      4 N          -4.1569  -17.3237   22.9461 N.ar    1  UNL1       -0.2307
      5 C          -5.1821  -16.7428   23.8742 C.ar    1  UNL1        0.0827
      6 C          -4.7598  -15.8040   24.9652 C.ar    1  UNL1        0.0200
      7 C          -5.7850  -15.2231   25.8933 C.ar    1  UNL1        0.0129
      8 C          -7.2326  -15.5810   25.7304 C.ar    1  UNL1        0.0578
      9 CL         -8.2578  -15.0001   26.6586 Cl      1  UNL1       -0.0822
     10 C          -7.6549  -16.5198   24.6395 C.ar    1  UNL1        0.0129
     11 C          -6.6296  -17.1007   23.7114 C.ar    1  UNL1        0.0187
     12 C         -10.9156  -17.7400   21.7648 C.ar    1  UNL1       -0.0225
     13 C         -11.3946  -19.1133   22.1317 C.ar    1  UNL1       -0.0043
     14 C         -10.4259  -20.1288   22.6615 C.ar    1  UNL1       -0.0003
     15 C          -8.9784  -19.7709   22.8244 C.ar    1  UNL1       -0.0000
     16 C          -8.4995  -18.3975   22.4575 C.ar    1  UNL1       -0.0001
     17 C          -9.4681  -17.3821   21.9277 C.ar    1  UNL1       -0.0043
     18 C         -11.8317  -16.3196   19.7916 C.3     1  UNL1        0.0047
     19 C         -11.8843  -16.7246   21.2350 C.3     1  UNL1        0.0224
     20 C         -12.9055  -16.1141   22.1485 C.3     1  UNL1        0.0047
     21 C          -6.4490  -19.5593   20.6012 C.2     1  UNL1        0.0756
     22 O          -6.0579  -21.0061   20.6636 O.co2   1  UNL1       -0.5445
     23 O          -7.2623  -19.0514   19.4477 O.co2   1  UNL1       -0.5445
     24 N          -3.5539  -18.8435   20.9269 N.pl3   1  UNL1       -0.2897
     25 C          -2.5822  -19.8694   21.4303 C.3     1  UNL1        0.1136
     26 C          -3.5004  -18.3985   19.4955 C.3     1  UNL1        0.1136
@<TRIPOS>UNITY_ATOM_ATTR
22 1
charge -1
@<TRIPOS>BOND
     1    18    19    1
     2    19    20    1
     3    19    12    1
     4    12    13   ar
     5    13    14   ar
     6    14    15   ar
     7    15    16   ar
     8    16     1    1
     9     1     2   ar
    10     2    21    1
    11    21    22   ar
    12    21    23   ar
    13     2     3   ar
    14     3    24    1
    15    24    25    1
    16    24    26    1
    17     3     4   ar
    18     4     5   ar
    19     5     6   ar
    20     6     7   ar
    21     7     8   ar
    22     8     9    1
    23     8    10   ar
    24    10    11   ar
    25    16    17   ar
    26    17    12   ar
    27    11     1   ar
    28    11     5   ar
@<TRIPOS>MOLECULE
*****
 26 28 0 0 0
SMALL
GASTEIGER

@<TRIPOS>ATOM
      1 C          -6.8004  -17.9281   22.9868 C.ar    1  UNL1        0.0053
      2 C          -5.6387  -18.3828   22.1539 C.ar    1  UNL1        0.0456
      3 C          -4.2605  -17.8665   22.4436 C.ar    1  UNL1        0.1328
      4 N          -4.0439  -16.8955   23.5661 N.ar    1  UNL1       -0.2307
      5 C          -5.2056  -16.4406   24.3990 C.ar    1  UNL1        0.0827
      6 C          -4.9889  -15.4696   25.5216 C.ar    1  UNL1        0.0200
      7 C          -6.1506  -15.0148   26.3544 C.ar    1  UNL1        0.0129
      8 C          -7.5288  -15.5311   26.0648 C.ar    1  UNL1        0.0578
      9 CL         -8.6905  -15.0763   26.8978 Cl      1  UNL1       -0.0822
     10 C          -7.7454  -16.5022   24.9423 C.ar    1  UNL1        0.0129
     11 C          -6.5838  -16.9569   24.1094 C.ar    1  UNL1        0.0187
     12 C         -10.3169  -18.4453   21.2216 C.ar    1  UNL1       -0.0225
     13 C         -10.9351  -19.4769   22.1180 C.ar    1  UNL1       -0.0043
     14 C         -10.1750  -19.9923   23.3041 C.ar    1  UNL1       -0.0003
     15 C          -8.7968  -19.4760   23.5937 C.ar    1  UNL1       -0.0000
     16 C          -8.1786  -18.4443   22.6972 C.ar    1  UNL1       -0.0001
     17 C          -8.9387  -17.9290   21.5112 C.ar    1  UNL1       -0.0043
     18 C         -11.5823  -16.5176   20.0244 C.3     1  UNL1        0.0047
     19 C         -11.0770  -17.9299   20.0355 C.3     1  UNL1        0.0224
     20 C         -11.3318  -18.8268   18.8605 C.3     1  UNL1        0.0047
     21 C          -5.8553  -19.3539   21.0314 C.2     1  UNL1        0.0756
     22 O          -5.8237  -18.8762   19.6098 O.co2   1  UNL1       -0.5445
     23 O          -6.1035  -20.8027   21.3303 O.co2   1  UNL1       -0.5445
     24 N          -3.0988  -18.3213   21.6106 N.pl3   1  UNL1       -0.2897
     25 C          -2.5177  -17.4084   20.5719 C.3     1  UNL1        0.1136
     26 C          -2.5183  -19.6890   21.8164 C.3     1  UNL1        0.1136
@<TRIPOS>UNITY_ATOM_ATTR
22 1
charge -1
@<TRIPOS>BOND
     1    18    19    1
     2    19    20    1
     3    19    12    1
     4    12    13   ar
     5    13    14   ar
     6    14    15   ar
     7    15    16   ar
     8    16     1    1
     9     1     2   ar
    10     2    21    1
    11    21    22   ar
    12    21    23   ar
    13     2     3   ar
    14     3    24    1
    15    24    25    1
    16    24    26    1
    17     3     4   ar
    18     4     5   ar
    19     5     6   ar
    20     6     7   ar
    21     7     8   ar
    22     8     9    1
    23     8    10   ar
    24    10    11   ar
    25    16    17   ar
    26    17    12   ar
    27    11     1   ar
    28    11     5   ar
@<TRIPOS>MOLECULE
*****
 26 28 0 0 0
SMALL
GASTEIGER

@<TRIPOS>ATOM
      1 C          -7.8043  -18.0187   21.8285 C.ar    1  UNL1        0.0053
      2 C          -9.1792  -18.0719   21.2311 C.ar    1  UNL1        0.0456
      3 C         -10.2637  -17.1835   21.7645 C.ar    1  UNL1        0.1328
      4 N          -9.9733  -16.2417   22.8952 N.ar    1  UNL1       -0.2307
      5 C          -8.5984  -16.1884   23.4927 C.ar    1  UNL1        0.0827
      6 C          -8.3081  -15.2466   24.6235 C.ar    1  UNL1        0.0200
      7 C          -6.9333  -15.1933   25.2209 C.ar    1  UNL1        0.0129
      8 C          -5.8488  -16.0818   24.6876 C.ar    1  UNL1        0.0578
      9 CL         -4.4739  -16.0284   25.2850 Cl      1  UNL1       -0.0822
     10 C          -6.1391  -17.0235   23.5568 C.ar    1  UNL1        0.0129
     11 C          -7.5139  -17.0768   22.9594 C.ar    1  UNL1        0.0187
     12 C          -4.3437  -19.1996   20.2861 C.ar    1  UNL1       -0.0225
     13 C          -4.5509  -20.6841   20.2284 C.ar    1  UNL1       -0.0043
     14 C          -5.8426  -21.2802   20.7041 C.ar    1  UNL1       -0.0003
     15 C          -6.9271  -20.3917   21.2375 C.ar    1  UNL1       -0.0000
     16 C          -6.7199  -18.9071   21.2951 C.ar    1  UNL1       -0.0001
     17 C          -5.4282  -18.3111   20.8195 C.ar    1  UNL1       -0.0043
     18 C          -1.7579  -19.0091   20.4514 C.3     1  UNL1        0.0047
     19 C          -3.0520  -18.6036   19.8104 C.3     1  UNL1        0.0224
     20 C          -3.0544  -17.6020   18.6938 C.3     1  UNL1        0.0047
     21 C          -9.4696  -19.0138   20.1002 C.2     1  UNL1        0.0756
     22 O         -10.4748  -20.1127   20.2788 O.co2   1  UNL1       -0.5445
     23 O          -8.7548  -18.8566   18.7909 O.co2   1  UNL1       -0.5445
     24 N         -11.6386  -17.2368   21.1670 N.pl3   1  UNL1       -0.2897
     25 C         -12.7192  -18.0288   21.8415 C.3     1  UNL1        0.1136
     26 C         -11.9327  -16.4982   19.8950 C.3     1  UNL1        0.1136
@<TRIPOS>UNITY_ATOM_ATTR
22 1
charge -1
@<TRIPOS>BOND
     1    18    19    1
     2    19    20    1
     3    19    12    1
     4    12    13   ar
     5    13    14   ar
     6    14    15   ar
     7    15    16   ar
     8    16     1    1
     9     1     2   ar
    10     2    21    1
    11    21    22   ar
    12    21    23   ar
    13     2     3   ar
    14     3    24    1
    15    24    25    1
    16    24    26    1
    17     3     4   ar
    18     4     5   ar
    19     5     6   ar
    20     6     7   ar
    21     7     8   ar
    22     8     9    1
    23     8    10   ar
    24    10    11   ar
    25    16    17   ar
    26    17    12   ar
    27    11     1   ar
    28    11     5   ar
@<TRIPOS>MOLECULE
*****
 26 28 0 0 0
SMALL
GASTEIGER

@<TRIPOS>ATOM
      1 C          -7.1043  -17.8941   22.4696 C.ar    1  UNL1        0.0053
      2 C          -8.5500  -17.9789   22.0789 C.ar    1  UNL1        0.0456
      3 C          -8.9825  -18.9354   21.0075 C.ar    1  UNL1        0.1328
      4 N          -7.9693  -19.8071   20.3267 N.ar    1  UNL1       -0.2307
      5 C          -6.5235  -19.7223   20.7174 C.ar    1  UNL1        0.0827
      6 C          -5.5102  -20.5940   20.0366 C.ar    1  UNL1        0.0200
      7 C          -4.0645  -20.5091   20.4273 C.ar    1  UNL1        0.0129
      8 C          -3.6321  -19.5526   21.4988 C.ar    1  UNL1        0.0578
      9 CL         -2.1863  -19.4678   21.8895 Cl      1  UNL1       -0.0822
     10 C          -4.6453  -18.6809   22.1796 C.ar    1  UNL1        0.0129
     11 C          -6.0910  -18.7658   21.7889 C.ar    1  UNL1        0.0187
     12 C          -7.0375  -15.8602   25.8768 C.ar    1  UNL1       -0.0225
     13 C          -5.8069  -15.0245   25.6840 C.ar    1  UNL1       -0.0043
     14 C          -5.0087  -15.1453   24.4197 C.ar    1  UNL1       -0.0003
     15 C          -5.4412  -16.1018   23.3483 C.ar    1  UNL1       -0.0000
     16 C          -6.6719  -16.9375   23.5411 C.ar    1  UNL1       -0.0001
     17 C          -7.4700  -16.8167   24.8053 C.ar    1  UNL1       -0.0043
     18 C          -8.7115  -16.8728   27.5863 C.3     1  UNL1        0.0047
     19 C          -7.8357  -15.7393   27.1411 C.3     1  UNL1        0.0224
     20 C          -7.7581  -14.4851   27.9601 C.3     1  UNL1        0.0047
     21 C          -9.5634  -17.1072   22.7597 C.2     1  UNL1        0.0756
     22 O          -9.7579  -15.6901   22.3081 O.co2   1  UNL1       -0.5445
     23 O         -10.3821  -17.6526   23.8920 O.co2   1  UNL1       -0.5445
     24 N         -10.4283  -19.0203   20.6168 N.pl3   1  UNL1       -0.2897
     25 C         -10.9857  -18.0743   19.5948 C.3     1  UNL1        0.1136
     26 C         -11.3166  -20.0509   21.2481 C.3     1  UNL1        0.1136
@<TRIPOS>UNITY_ATOM_ATTR
22 1
charge -1
@<TRIPOS>BOND
     1    18    19    1
     2    19    20    1
     3    19    12    1
     4    12    13   ar
     5    13    14   ar
     6    14    15   ar
     7    15    16   ar
     8    16     1    1
     9     1     2   ar
    10     2    21    1
    11    21    22   ar
    12    21    23   ar
    13     2     3   ar
    14     3    24    1
    15    24    25    1
    16    24    26    1
    17     3     4   ar
    18     4     5   ar
    19     5     6   ar
    20     6     7   ar
    21     7     8   ar
    22     8     9    1
    23     8    10   ar
    24    10    11   ar
    25    16    17   ar
    26    17    12   ar
    27    11     1   ar
    28    11     5   ar
@<TRIPOS>MOLECULE
*****
 26 28 0 0 0
SMALL
GASTEIGER

@<TRIPOS>ATOM
      1 C          -6.5566  -18.3950   21.5908 C.ar    1  UNL1        0.0053
      2 C          -6.5890  -17.4845   22.7824 C.ar    1  UNL1        0.0456
      3 C          -7.9005  -16.9718   23.2991 C.ar    1  UNL1        0.1328
      4 N          -9.1797  -17.3695   22.6242 N.ar    1  UNL1       -0.2307
      5 C          -9.1474  -18.2801   21.4326 C.ar    1  UNL1        0.0827
      6 C         -10.4265  -18.6778   20.7578 C.ar    1  UNL1        0.0200
      7 C         -10.3942  -19.5883   19.5662 C.ar    1  UNL1        0.0129
      8 C          -9.0827  -20.1011   19.0495 C.ar    1  UNL1        0.0578
      9 CL         -9.0504  -21.0116   17.8578 Cl      1  UNL1       -0.0822
     10 C          -7.8035  -19.7033   19.7243 C.ar    1  UNL1        0.0129
     11 C          -7.8359  -18.7928   20.9159 C.ar    1  UNL1        0.0187
     12 C          -2.7333  -18.5213   20.5342 C.ar    1  UNL1       -0.0225
     13 C          -2.6221  -19.9333   20.0406 C.ar    1  UNL1       -0.0043
     14 C          -3.8224  -20.8327   20.0637 C.ar    1  UNL1       -0.0003
     15 C          -5.1339  -20.3199   20.5804 C.ar    1  UNL1       -0.0000
     16 C          -5.2451  -18.9078   21.0741 C.ar    1  UNL1       -0.0001
     17 C          -4.0448  -18.0085   21.0510 C.ar    1  UNL1       -0.0043
     18 C          -1.5462  -16.3337   21.2796 C.3     1  UNL1        0.0047
     19 C          -1.5330  -17.6219   20.5111 C.3     1  UNL1        0.0224
     20 C          -0.3196  -18.0107   19.7197 C.3     1  UNL1        0.0047
     21 C          -5.3097  -17.0867   23.4573 C.2     1  UNL1        0.0756
     22 O          -4.5339  -18.0971   24.2492 O.co2   1  UNL1       -0.5445
     23 O          -4.8064  -15.6786   23.3402 O.co2   1  UNL1       -0.5445
     24 N          -7.9328  -16.0612   24.4907 N.pl3   1  UNL1       -0.2897
     25 C          -8.2649  -16.6113   25.8461 C.3     1  UNL1        0.1136
     26 C          -7.6329  -14.6007   24.3269 C.3     1  UNL1        0.1136
@<TRIPOS>UNITY_ATOM_ATTR
22 1
charge -1
@<TRIPOS>BOND
     1    18    19    1
     2    19    20    1
     3    19    12    1
     4    12    13   ar
     5    13    14   ar
     6    14    15   ar
     7    15    16   ar
     8    16     1    1
     9     1     2   ar
    10     2    21    1
    11    21    22   ar
    12    21    23   ar
    13     2     3   ar
    14     3    24    1
    15    24    25    1
    16    24    26    1
    17     3     4   ar
    18     4     5   ar
    19     5     6   ar
    20     6     7   ar
    21     7     8   ar
    22     8     9    1
    23     8    10   ar
    24    10    11   ar
    25    16    17   ar
    26    17    12   ar
    27    11     1   ar
    28    11     5   ar
@<TRIPOS>MOLECULE
*****
 26 28 0 0 0
SMALL
GASTEIGER

@<TRIPOS>ATOM
      1 C          -6.5346  -18.0131   22.3439 C.ar    1  UNL1        0.0053
      2 C          -5.9693  -17.1887   23.4623 C.ar    1  UNL1        0.0456
      3 C          -6.8856  -16.3986   24.3490 C.ar    1  UNL1        0.1328
      4 N          -8.3672  -16.4329   24.1172 N.ar    1  UNL1       -0.2307
      5 C          -8.9325  -17.2573   22.9987 C.ar    1  UNL1        0.0827
      6 C         -10.4141  -17.2916   22.7670 C.ar    1  UNL1        0.0200
      7 C         -10.9793  -18.1159   21.6485 C.ar    1  UNL1        0.0129
      8 C         -10.0630  -18.9060   20.7619 C.ar    1  UNL1        0.0578
      9 CL        -10.6283  -19.7304   19.6434 Cl      1  UNL1       -0.0822
     10 C          -8.5814  -18.8717   20.9937 C.ar    1  UNL1        0.0129
     11 C          -8.0162  -18.0474   22.1121 C.ar    1  UNL1        0.0187
     12 C          -3.5007  -18.9364   19.9579 C.ar    1  UNL1       -0.0225
     13 C          -3.7856  -20.3834   19.6840 C.ar    1  UNL1       -0.0043
     14 C          -4.9869  -21.0403   20.2968 C.ar    1  UNL1       -0.0003
     15 C          -5.9032  -20.2502   21.1834 C.ar    1  UNL1       -0.0000
     16 C          -5.6182  -18.8032   21.4573 C.ar    1  UNL1       -0.0001
     17 C          -4.4170  -18.1463   20.8445 C.ar    1  UNL1       -0.0043
     18 C          -2.4606  -17.3860   18.1511 C.3     1  UNL1        0.0047
     19 C          -2.2994  -18.2794   19.3451 C.3     1  UNL1        0.0224
     20 C          -0.9370  -18.5159   19.9264 C.3     1  UNL1        0.0047
     21 C          -4.4877  -17.1544   23.6942 C.2     1  UNL1        0.0756
     22 O          -3.6276  -16.2082   22.9101 O.co2   1  UNL1       -0.5445
     23 O          -3.8662  -18.0664   24.7101 O.co2   1  UNL1       -0.5445
     24 N          -6.3203  -15.5743   25.4674 N.pl3   1  UNL1       -0.2897
     25 C          -5.2675  -14.5446   25.1822 C.3     1  UNL1        0.1136
     26 C          -6.8078  -15.7796   26.8710 C.3     1  UNL1        0.1136
@<TRIPOS>UNITY_ATOM_ATTR
22 1
charge -1
@<TRIPOS>BOND
     1    18    19    1
     2    19    20    1
     3    19    12    1
     4    12    13   ar
     5    13    14   ar
     6    14    15   ar
     7    15    16   ar
     8    16     1    1
     9     1     2   ar
    10     2    21    1
    11    21    22   ar
    12    21    23   ar
    13     2     3   ar
    14     3    24    1
    15    24    25    1
    16    24    26    1
    17     3     4   ar
    18     4     5   ar
    19     5     6   ar
    20     6     7   ar
    21     7     8   ar
    22     8     9    1
    23     8    10   ar
    24    10    11   ar
    25    16    17   ar
    26    17    12   ar
    27    11     1   ar
    28    11     5   ar
@<TRIPOS>MOLECULE
*****
 26 28 0 0 0
SMALL
GASTEIGER

@<TRIPOS>ATOM
      1 C          -7.2131  -17.5435   22.4693 C.ar    1  UNL1        0.0053
      2 C          -6.1649  -18.4231   21.8549 C.ar    1  UNL1        0.0456
      3 C          -6.5100  -19.2963   20.6851 C.ar    1  UNL1        0.1328
      4 N          -7.9033  -19.2899   20.1297 N.ar    1  UNL1       -0.2307
      5 C          -8.9516  -18.4103   20.7441 C.ar    1  UNL1        0.0827
      6 C         -10.3450  -18.4040   20.1886 C.ar    1  UNL1        0.0200
      7 C         -11.3932  -17.5244   20.8030 C.ar    1  UNL1        0.0129
      8 C         -11.0481  -16.6512   21.9728 C.ar    1  UNL1        0.0578
      9 CL        -12.0965  -15.7716   22.5872 Cl      1  UNL1       -0.0822
     10 C          -9.6548  -16.6575   22.5282 C.ar    1  UNL1        0.0129
     11 C          -8.6066  -17.5371   21.9138 C.ar    1  UNL1        0.0187
     12 C          -7.3994  -15.7931   26.0261 C.ar    1  UNL1       -0.0225
     13 C          -6.1779  -14.9238   25.9786 C.ar    1  UNL1       -0.0043
     14 C          -5.3014  -14.9278   24.7613 C.ar    1  UNL1       -0.0003
     15 C          -5.6465  -15.8010   23.5915 C.ar    1  UNL1       -0.0000
     16 C          -6.8680  -16.6703   23.6391 C.ar    1  UNL1       -0.0001
     17 C          -7.7445  -16.6663   24.8563 C.ar    1  UNL1       -0.0043
     18 C          -8.9577  -17.0516   27.6808 C.3     1  UNL1        0.0047
     19 C          -8.2759  -15.7891   27.2435 C.3     1  UNL1        0.0224
     20 C          -8.4705  -14.5227   28.0234 C.3     1  UNL1        0.0047
     21 C          -4.7715  -18.4294   22.4103 C.2     1  UNL1        0.0756
     22 O          -4.3188  -19.5592   23.2872 O.co2   1  UNL1       -0.5445
     23 O          -3.8308  -17.3062   22.0889 O.co2   1  UNL1       -0.5445
     24 N          -5.4616  -20.1759   20.0707 N.pl3   1  UNL1       -0.2897
     25 C          -5.6373  -21.6656   20.0726 C.3     1  UNL1        0.1136
     26 C          -4.2377  -19.5658   19.4545 C.3     1  UNL1        0.1136
@<TRIPOS>UNITY_ATOM_ATTR
22 1
charge -1
@<TRIPOS>BOND
     1    18    19    1
     2    19    20    1
     3    19    12    1
     4    12    13   ar
     5    13    14   ar
     6    14    15   ar
     7    15    16   ar
     8    16     1    1
     9     1     2   ar
    10     2    21    1
    11    21    22   ar
    12    21    23   ar
    13     2     3   ar
    14     3    24    1
    15    24    25    1
    16    24    26    1
    17     3     4   ar
    18     4     5   ar
    19     5     6   ar
    20     6     7   ar
    21     7     8   ar
    22     8     9    1
    23     8    10   ar
    24    10    11   ar
    25    16    17   ar
    26    17    12   ar
    27    11     1   ar
    28    11     5   ar
@<TRIPOS>MOLECULE
*****
 26 28 0 0 0
SMALL
GASTEIGER

@<TRIPOS>ATOM
      1 C           0.3215    2.1012   23.2508 C.ar    1  UNL1        0.0053
      2 C          -0.7948    3.0037   22.8160 C.ar    1  UNL1        0.0456
      3 C          -1.3342    2.9102   21.4194 C.ar    1  UNL1        0.1328
      4 N          -0.7572    1.9141   20.4577 N.ar    1  UNL1       -0.2307
      5 C           0.3592    1.0115   20.8926 C.ar    1  UNL1        0.0827
      6 C           0.9362    0.0155   19.9309 C.ar    1  UNL1        0.0200
      7 C           2.0526   -0.8870   20.3657 C.ar    1  UNL1        0.0129
      8 C           2.5920   -0.7934   21.7622 C.ar    1  UNL1        0.0578
      9 CL          3.7084   -1.6960   22.1971 Cl      1  UNL1       -0.0822
     10 C           2.0150    0.2026   22.7239 C.ar    1  UNL1        0.0129
     11 C           0.8986    1.1051   22.2891 C.ar    1  UNL1        0.0187
     12 C           0.8099    1.4440   27.1340 C.ar    1  UNL1       -0.0225
     13 C           1.9397    2.3819   27.4404 C.ar    1  UNL1       -0.0043
     14 C           2.5301    3.2263   26.3502 C.ar    1  UNL1       -0.0003
     15 C           1.9907    3.1328   24.9537 C.ar    1  UNL1       -0.0000
     16 C           0.8609    2.1948   24.6473 C.ar    1  UNL1       -0.0001
     17 C           0.2705    1.3504   25.7375 C.ar    1  UNL1       -0.0043
     18 C          -1.2647    0.5851   28.4412 C.3     1  UNL1        0.0047
     19 C           0.2195    0.5995   28.2242 C.3     1  UNL1        0.0224
     20 C           1.1132   -0.2304   29.0973 C.3     1  UNL1        0.0047
     21 C          -1.3719    3.9998   23.7777 C.2     1  UNL1        0.0756
     22 O          -2.5864    3.6469   24.5843 O.co2   1  UNL1       -0.5445
     23 O          -0.7345    5.3488   23.9327 O.co2   1  UNL1       -0.5445
     24 N          -2.4507    3.8127   20.9846 N.pl3   1  UNL1       -0.2897
     25 C          -3.8730    3.3458   21.0800 C.3     1  UNL1        0.1136
     26 C          -2.1448    5.1821   20.4545 C.3     1  UNL1        0.1136
@<TRIPOS>UNITY_ATOM_ATTR
22 1
charge -1
@<TRIPOS>BOND
     1    18    19    1
     2    19    20    1
     3    19    12    1
     4    12    13   ar
     5    13    14   ar
     6    14    15   ar
     7    15    16   ar
     8    16     1    1
     9     1     2   ar
    10     2    21    1
    11    21    22   ar
    12    21    23   ar
    13     2     3   ar
    14     3    24    1
    15    24    25    1
    16    24    26    1
    17     3     4   ar
    18     4     5   ar
    19     5     6   ar
    20     6     7   ar
    21     7     8   ar
    22     8     9    1
    23     8    10   ar
    24    10    11   ar
    25    16    17   ar
    26    17    12   ar
    27    11     1   ar
    28    11     5   ar
@<TRIPOS>MOLECULE
*****
 26 28 0 0 0
SMALL
GASTEIGER

@<TRIPOS>ATOM
      1 C           6.4583   -3.1971   24.3000 C.ar    1  UNL1        0.0053
      2 C           5.7918   -2.1236   25.1083 C.ar    1  UNL1        0.0456
      3 C           5.6713   -2.2707   26.5962 C.ar    1  UNL1        0.1328
      4 N           6.2173   -3.4913   27.2758 N.ar    1  UNL1       -0.2307
      5 C           6.8839   -4.5649   26.4675 C.ar    1  UNL1        0.0827
      6 C           7.4299   -5.7855   27.1471 C.ar    1  UNL1        0.0200
      7 C           8.0964   -6.8590   26.3388 C.ar    1  UNL1        0.0129
      8 C           8.2169   -6.7118   24.8509 C.ar    1  UNL1        0.0578
      9 CL          8.8835   -7.7854   24.0427 Cl      1  UNL1       -0.0822
     10 C           7.6709   -5.4912   24.1713 C.ar    1  UNL1        0.0129
     11 C           7.0044   -4.4178   24.9796 C.ar    1  UNL1        0.0187
     12 C           5.5819   -3.3572   20.4327 C.ar    1  UNL1       -0.0225
     13 C           6.8198   -2.7557   19.8363 C.ar    1  UNL1       -0.0043
     14 C           7.9373   -2.3012   20.7278 C.ar    1  UNL1       -0.0003
     15 C           7.8168   -2.4484   22.2157 C.ar    1  UNL1       -0.0000
     16 C           6.5788   -3.0499   22.8121 C.ar    1  UNL1       -0.0001
     17 C           5.4614   -3.5044   21.9206 C.ar    1  UNL1       -0.0043
     18 C           4.5743   -5.1143   18.8055 C.3     1  UNL1        0.0047
     19 C           4.4644   -3.8117   19.5411 C.3     1  UNL1        0.0224
     20 C           3.2371   -2.9636   19.3853 C.3     1  UNL1        0.0047
     21 C           5.2457   -0.9029   24.4287 C.2     1  UNL1        0.0756
     22 O           3.8218   -0.8807   23.9573 O.co2   1  UNL1       -0.5445
     23 O           6.1234    0.2954   24.2204 O.co2   1  UNL1       -0.5445
     24 N           5.0047   -1.1972   27.4044 N.pl3   1  UNL1       -0.2897
     25 C           3.5203   -1.2313   27.6174 C.3     1  UNL1        0.1136
     26 C           5.8226   -0.0896   27.9997 C.3     1  UNL1        0.1136
@<TRIPOS>UNITY_ATOM_ATTR
22 1
charge -1
@<TRIPOS>BOND
     1    18    19    1
     2    19    20    1
     3    19    12    1
     4    12    13   ar
     5    13    14   ar
     6    14    15   ar
     7    15    16   ar
     8    16     1    1
     9     1     2   ar
    10     2    21    1
    11    21    22   ar
    12    21    23   ar
    13     2     3   ar
    14     3    24    1
    15    24    25    1
    16    24    26    1
    17     3     4   ar
    18     4     5   ar
    19     5     6   ar
    20     6     7   ar
    21     7     8   ar
    22     8     9    1
    23     8    10   ar
    24    10    11   ar
    25    16    17   ar
    26    17    12   ar
    27    11     1   ar
    28    11     5   ar
