@<TRIPOS>MOLECULE
*****
 29 30 0 0 0
SMALL
GASTEIGER

@<TRIPOS>ATOM
      1 O          -5.8614  -19.9261   22.3977 O.3     1  UNL1       -0.4504
      2 C          -9.8016  -17.7566   22.2631 C.ar    1  UNL1       -0.0099
      3 C          -8.5318  -17.0262   21.9403 C.ar    1  UNL1       -0.0002
      4 C          -7.2184  -17.7493   21.9852 C.ar    1  UNL1        0.0372
      5 C          -7.1748  -19.2029   22.3528 C.ar    1  UNL1        0.1454
      6 C          -8.4445  -19.9333   22.6756 C.ar    1  UNL1        0.0372
      7 C          -9.7579  -19.2101   22.6307 C.ar    1  UNL1       -0.0002
      8 C         -11.1150  -17.0334   22.2182 C.3     1  UNL1        0.0917
      9 C         -14.5287  -18.4055   24.8092 C.3     1  UNL1        0.0900
     10 C         -13.3908  -17.9482   23.9456 C.1     1  UNL1       -0.0897
     11 C         -12.2529  -17.4908   23.0818 C.1     1  UNL1       -0.0872
     12 C         -11.2905  -15.8528   21.3097 C.3     1  UNL1        0.0591
     13 C         -11.3369  -16.0505   19.8235 C.2     1  UNL1        0.0517
     14 O         -10.8244  -14.9786   18.9079 O.co2   1  UNL1       -0.5491
     15 O         -11.8959  -17.3202   19.2529 O.co2   1  UNL1       -0.5491
     16 C          -4.6201  -19.2592   21.8834 C.ar    1  UNL1        0.1791
     17 C          -4.1225  -19.5640   20.5015 C.ar    1  UNL1        0.0406
     18 C          -2.8812  -18.8972   19.9873 C.ar    1  UNL1        0.0072
     19 C          -2.1374  -17.9256   20.8549 C.ar    1  UNL1        0.0746
     20 C          -2.6349  -17.6208   22.2367 C.ar    1  UNL1        0.0441
     21 C          -3.8763  -18.2876   22.7510 C.ar    1  UNL1        0.1785
     22 C          -0.8961  -17.2587   20.3406 C.3     1  UNL1        0.4187
     23 F           0.3452  -16.5919   19.8263 F       1  UNL1       -0.1659
     24 F          -0.5807  -18.4762   19.5231 F       1  UNL1       -0.1659
     25 F          -1.2115  -16.0412   21.1580 F       1  UNL1       -0.1659
     26 O          -4.3738  -17.9828   24.1329 O.3     1  UNL1       -0.4205
     27 C          -4.7121  -16.5720   24.5140 C.3     1  UNL1        0.5087
     28 F          -4.8374  -16.1955   25.9605 F       1  UNL1       -0.1550
     29 F          -4.9251  -15.5379   23.4487 F       1  UNL1       -0.1550
@<TRIPOS>UNITY_ATOM_ATTR
14 1
charge -1
@<TRIPOS>BOND
     1     9    10    1
     2    10    11    3
     3    11     8    1
     4     8    12    1
     5    12    13    1
     6    13    14   ar
     7    13    15   ar
     8     8     2    1
     9     2     3   ar
    10     3     4   ar
    11     4     5   ar
    12     5     1    1
    13     1    16    1
    14    16    17   ar
    15    17    18   ar
    16    18    19   ar
    17    19    22    1
    18    22    23    1
    19    22    24    1
    20    22    25    1
    21    19    20   ar
    22    20    21   ar
    23    21    26    1
    24    26    27    1
    25    27    28    1
    26    27    29    1
    27     5     6   ar
    28     6     7   ar
    29     7     2   ar
    30    21    16   ar
@<TRIPOS>MOLECULE
*****
 29 30 0 0 0
SMALL
GASTEIGER

@<TRIPOS>ATOM
      1 O          -5.3300  -19.5529   23.0009 O.3     1  UNL1       -0.4504
      2 C          -9.4587  -18.3116   21.7113 C.ar    1  UNL1       -0.0099
      3 C          -9.1650  -19.7540   21.9998 C.ar    1  UNL1       -0.0002
      4 C          -7.7888  -20.1678   22.4296 C.ar    1  UNL1        0.0372
      5 C          -6.7062  -19.1392   22.5710 C.ar    1  UNL1        0.1454
      6 C          -6.9999  -17.6968   22.2826 C.ar    1  UNL1        0.0372
      7 C          -8.3761  -17.2830   21.8527 C.ar    1  UNL1       -0.0002
      8 C         -10.8349  -17.8979   21.2814 C.3     1  UNL1        0.0917
      9 C         -14.2379  -18.0024   24.2240 C.3     1  UNL1        0.0900
     10 C         -13.1035  -17.9675   23.2432 C.1     1  UNL1       -0.0897
     11 C         -11.9692  -17.9327   22.2622 C.1     1  UNL1       -0.0872
     12 C         -11.0768  -17.4492   19.8707 C.3     1  UNL1        0.0591
     13 C         -11.5786  -16.0617   19.6005 C.2     1  UNL1        0.0517
     14 O         -10.6406  -15.0129   19.0809 O.co2   1  UNL1       -0.5491
     15 O         -13.0185  -15.7231   19.8500 O.co2   1  UNL1       -0.5491
     16 C          -4.1256  -18.9727   22.3207 C.ar    1  UNL1        0.1791
     17 C          -3.4360  -17.7769   22.9079 C.ar    1  UNL1        0.0406
     18 C          -2.2316  -17.1967   22.2277 C.ar    1  UNL1        0.0072
     19 C          -1.7168  -17.8121   20.9603 C.ar    1  UNL1        0.0746
     20 C          -2.4063  -19.0078   20.3732 C.ar    1  UNL1        0.0441
     21 C          -3.6108  -19.5881   21.0534 C.ar    1  UNL1        0.1785
     22 C          -0.5123  -17.2318   20.2801 C.3     1  UNL1        0.4187
     23 F           0.6921  -16.6515   19.6000 F       1  UNL1       -0.1659
     24 F          -0.8282  -15.8880   20.8672 F       1  UNL1       -0.1659
     25 F          -0.1965  -18.5755   19.6931 F       1  UNL1       -0.1659
     26 O          -4.3003  -20.7838   20.4662 O.3     1  UNL1       -0.4205
     27 C          -5.6471  -20.6323   19.8233 C.3     1  UNL1        0.5087
     28 F          -6.4753  -21.8462   19.5225 F       1  UNL1       -0.1550
     29 F          -6.1656  -19.2670   19.4813 F       1  UNL1       -0.1550
@<TRIPOS>UNITY_ATOM_ATTR
14 1
charge -1
@<TRIPOS>BOND
     1     9    10    1
     2    10    11    3
     3    11     8    1
     4     8    12    1
     5    12    13    1
     6    13    14   ar
     7    13    15   ar
     8     8     2    1
     9     2     3   ar
    10     3     4   ar
    11     4     5   ar
    12     5     1    1
    13     1    16    1
    14    16    17   ar
    15    17    18   ar
    16    18    19   ar
    17    19    22    1
    18    22    23    1
    19    22    24    1
    20    22    25    1
    21    19    20   ar
    22    20    21   ar
    23    21    26    1
    24    26    27    1
    25    27    28    1
    26    27    29    1
    27     5     6   ar
    28     6     7   ar
    29     7     2   ar
    30    21    16   ar
@<TRIPOS>MOLECULE
*****
 29 30 0 0 0
SMALL
GASTEIGER

@<TRIPOS>ATOM
      1 O          -5.8327  -17.4688   24.0945 O.3     1  UNL1       -0.4504
      2 C          -9.9738  -17.5584   22.3358 C.ar    1  UNL1       -0.0099
      3 C          -9.7510  -16.9773   23.7005 C.ar    1  UNL1       -0.0002
      4 C          -8.3707  -16.9475   24.2868 C.ar    1  UNL1        0.0372
      5 C          -7.2131  -17.4987   23.5083 C.ar    1  UNL1        0.1454
      6 C          -7.4359  -18.0798   22.1435 C.ar    1  UNL1        0.0372
      7 C          -8.8163  -18.1097   21.5572 C.ar    1  UNL1       -0.0002
      8 C         -11.3542  -17.5883   21.7495 C.3     1  UNL1        0.0917
      9 C         -14.9113  -18.3258   24.4053 C.3     1  UNL1        0.0900
     10 C         -13.7256  -18.0800   23.5200 C.1     1  UNL1       -0.0897
     11 C         -12.5399  -17.8341   22.6348 C.1     1  UNL1       -0.0872
     12 C         -11.5489  -17.3724   20.2780 C.3     1  UNL1        0.0591
     13 C         -11.5267  -15.9824   19.7145 C.2     1  UNL1        0.0517
     14 O         -12.7465  -15.4263   19.0417 O.co2   1  UNL1       -0.5491
     15 O         -10.2846  -15.1485   19.8238 O.co2   1  UNL1       -0.5491
     16 C          -4.6342  -17.5083   23.1935 C.ar    1  UNL1        0.1791
     17 C          -4.1254  -18.8225   22.6793 C.ar    1  UNL1        0.0406
     18 C          -2.9268  -18.8620   21.7783 C.ar    1  UNL1        0.0072
     19 C          -2.2371  -17.5874   21.3914 C.ar    1  UNL1        0.0746
     20 C          -2.7458  -16.2733   21.9055 C.ar    1  UNL1        0.0441
     21 C          -3.9444  -16.2338   22.8066 C.ar    1  UNL1        0.1785
     22 C          -1.0385  -17.6269   20.4903 C.3     1  UNL1        0.4187
     23 F           0.1600  -17.6665   19.5892 F       1  UNL1       -0.1659
     24 F          -0.8041  -16.1662   20.7378 F       1  UNL1       -0.1659
     25 F          -1.2728  -19.0877   20.2427 F       1  UNL1       -0.1659
     26 O          -4.4532  -14.9197   23.3207 O.3     1  UNL1       -0.4205
     27 C          -5.2796  -14.8730   24.5716 C.3     1  UNL1        0.5087
     28 F          -6.7259  -14.4819   24.5009 F       1  UNL1       -0.1550
     29 F          -4.6596  -15.2173   25.8934 F       1  UNL1       -0.1550
@<TRIPOS>UNITY_ATOM_ATTR
14 1
charge -1
@<TRIPOS>BOND
     1     9    10    1
     2    10    11    3
     3    11     8    1
     4     8    12    1
     5    12    13    1
     6    13    14   ar
     7    13    15   ar
     8     8     2    1
     9     2     3   ar
    10     3     4   ar
    11     4     5   ar
    12     5     1    1
    13     1    16    1
    14    16    17   ar
    15    17    18   ar
    16    18    19   ar
    17    19    22    1
    18    22    23    1
    19    22    24    1
    20    22    25    1
    21    19    20   ar
    22    20    21   ar
    23    21    26    1
    24    26    27    1
    25    27    28    1
    26    27    29    1
    27     5     6   ar
    28     6     7   ar
    29     7     2   ar
    30    21    16   ar
@<TRIPOS>MOLECULE
*****
 29 30 0 0 0
SMALL
GASTEIGER

@<TRIPOS>ATOM
      1 O           3.4530    0.8245   21.7139 O.3     1  UNL1       -0.4504
      2 C           0.9727    1.2265   25.4471 C.ar    1  UNL1       -0.0099
      3 C           0.3216    1.3277   24.0996 C.ar    1  UNL1       -0.0002
      4 C           1.1484    1.1937   22.8552 C.ar    1  UNL1        0.0372
      5 C           2.6262    0.9585   22.9583 C.ar    1  UNL1        0.1454
      6 C           3.2773    0.8573   24.3058 C.ar    1  UNL1        0.0372
      7 C           2.4505    0.9913   25.5502 C.ar    1  UNL1       -0.0002
      8 C           0.1459    1.3605   26.6915 C.3     1  UNL1        0.0917
      9 C          -3.5433    3.9372   26.6751 C.3     1  UNL1        0.0900
     10 C          -2.3135    3.0784   26.6805 C.1     1  UNL1       -0.0897
     11 C          -1.0838    2.2194   26.6860 C.1     1  UNL1       -0.0872
     12 C           0.5489    0.6357   27.9413 C.3     1  UNL1        0.0591
     13 C          -0.4791    0.3098   28.9839 C.2     1  UNL1        0.0517
     14 O          -1.5250   -0.7292   28.7069 O.co2   1  UNL1       -0.5491
     15 O          -0.4613    1.0228   30.3035 O.co2   1  UNL1       -0.5491
     16 C           3.6876   -0.5290   21.1115 C.ar    1  UNL1        0.1791
     17 C           4.3182   -1.6157   21.9311 C.ar    1  UNL1        0.0406
     18 C           4.5529   -2.9692   21.3287 C.ar    1  UNL1        0.0072
     19 C           4.1570   -3.2361   19.9068 C.ar    1  UNL1        0.0746
     20 C           3.5265   -2.1496   19.0872 C.ar    1  UNL1        0.0441
     21 C           3.2917   -0.7960   19.6895 C.ar    1  UNL1        0.1785
     22 C           4.3917   -4.5897   19.3044 C.3     1  UNL1        0.4187
     23 F           4.6264   -5.9432   18.7021 F       1  UNL1       -0.1659
     24 F           2.9710   -4.6225   18.8244 F       1  UNL1       -0.1659
     25 F           5.8124   -4.5569   19.7843 F       1  UNL1       -0.1659
     26 O           2.6612    0.2906   18.8699 O.3     1  UNL1       -0.4205
     27 C           1.1806    0.5205   18.9412 C.3     1  UNL1        0.5087
     28 F           0.5255    1.4866   17.9992 F       1  UNL1       -0.1550
     29 F           0.3552   -0.2157   19.9545 F       1  UNL1       -0.1550
@<TRIPOS>UNITY_ATOM_ATTR
14 1
charge -1
@<TRIPOS>BOND
     1     9    10    1
     2    10    11    3
     3    11     8    1
     4     8    12    1
     5    12    13    1
     6    13    14   ar
     7    13    15   ar
     8     8     2    1
     9     2     3   ar
    10     3     4   ar
    11     4     5   ar
    12     5     1    1
    13     1    16    1
    14    16    17   ar
    15    17    18   ar
    16    18    19   ar
    17    19    22    1
    18    22    23    1
    19    22    24    1
    20    22    25    1
    21    19    20   ar
    22    20    21   ar
    23    21    26    1
    24    26    27    1
    25    27    28    1
    26    27    29    1
    27     5     6   ar
    28     6     7   ar
    29     7     2   ar
    30    21    16   ar
@<TRIPOS>MOLECULE
*****
 29 30 0 0 0
SMALL
GASTEIGER

@<TRIPOS>ATOM
      1 O         -12.2394   -4.1053   19.7054 O.3     1  UNL1       -0.4504
      2 C         -13.8804   -0.0689   18.5809 C.ar    1  UNL1       -0.0099
      3 C         -12.4576   -0.4167   18.2575 C.ar    1  UNL1       -0.0002
      4 C         -11.9106   -1.7621   18.6323 C.ar    1  UNL1        0.0372
      5 C         -12.7864   -2.7598   19.3306 C.ar    1  UNL1        0.1454
      6 C         -14.2092   -2.4120   19.6539 C.ar    1  UNL1        0.0372
      7 C         -14.7562   -1.0665   19.2791 C.ar    1  UNL1       -0.0002
      8 C         -14.4274    1.2766   18.2060 C.3     1  UNL1        0.0917
      9 C         -16.9591    3.5716   21.1341 C.3     1  UNL1        0.0900
     10 C         -16.1152    2.8066   20.1581 C.1     1  UNL1       -0.0897
     11 C         -15.2713    2.0416   19.1820 C.1     1  UNL1       -0.0872
     12 C         -14.1305    1.8571   16.8552 C.3     1  UNL1        0.0591
     13 C         -13.2067    3.0323   16.7304 C.2     1  UNL1        0.0517
     14 O         -13.6965    4.3093   16.1147 O.co2   1  UNL1       -0.5491
     15 O         -11.7929    2.9303   17.2214 O.co2   1  UNL1       -0.5491
     16 C         -13.0064   -5.3483   19.3641 C.ar    1  UNL1        0.1791
     17 C         -14.4088   -5.5259   19.8661 C.ar    1  UNL1        0.0406
     18 C         -15.1758   -6.7689   19.5248 C.ar    1  UNL1        0.0072
     19 C         -14.5405   -7.8344   18.6816 C.ar    1  UNL1        0.0746
     20 C         -13.1382   -7.6569   18.1796 C.ar    1  UNL1        0.0441
     21 C         -12.3711   -6.4138   18.5208 C.ar    1  UNL1        0.1785
     22 C         -15.3076   -9.0775   18.3403 C.3     1  UNL1        0.4187
     23 F         -16.0747  -10.3206   17.9991 F       1  UNL1       -0.1659
     24 F         -14.6317   -9.1273   17.0022 F       1  UNL1       -0.1659
     25 F         -15.9835   -9.0278   19.6784 F       1  UNL1       -0.1659
     26 O         -10.9689   -6.2363   18.0189 O.3     1  UNL1       -0.4205
     27 C          -9.8083   -6.4448   18.9460 C.3     1  UNL1        0.5087
     28 F          -9.2163   -5.2787   19.6806 F       1  UNL1       -0.1550
     29 F          -9.2397   -7.8194   19.1386 F       1  UNL1       -0.1550
@<TRIPOS>UNITY_ATOM_ATTR
14 1
charge -1
@<TRIPOS>BOND
     1     9    10    1
     2    10    11    3
     3    11     8    1
     4     8    12    1
     5    12    13    1
     6    13    14   ar
     7    13    15   ar
     8     8     2    1
     9     2     3   ar
    10     3     4   ar
    11     4     5   ar
    12     5     1    1
    13     1    16    1
    14    16    17   ar
    15    17    18   ar
    16    18    19   ar
    17    19    22    1
    18    22    23    1
    19    22    24    1
    20    22    25    1
    21    19    20   ar
    22    20    21   ar
    23    21    26    1
    24    26    27    1
    25    27    28    1
    26    27    29    1
    27     5     6   ar
    28     6     7   ar
    29     7     2   ar
    30    21    16   ar
@<TRIPOS>MOLECULE
*****
 29 30 0 0 0
SMALL
GASTEIGER

@<TRIPOS>ATOM
      1 O         -12.3107   -2.0344   17.3430 O.3     1  UNL1       -0.4504
      2 C         -16.0613   -0.7301   19.4599 C.ar    1  UNL1       -0.0099
      3 C         -15.1525   -1.7390   20.0973 C.ar    1  UNL1       -0.0002
      4 C         -13.9023   -2.1737   19.3917 C.ar    1  UNL1        0.0372
      5 C         -13.5609   -1.5996   18.0486 C.ar    1  UNL1        0.1454
      6 C         -14.4696   -0.5908   17.4112 C.ar    1  UNL1        0.0372
      7 C         -15.7199   -0.1560   18.1169 C.ar    1  UNL1       -0.0002
      8 C         -17.3115   -0.2954   20.1656 C.3     1  UNL1        0.0917
      9 C         -17.1723    3.1223   23.0896 C.3     1  UNL1        0.0900
     10 C         -17.2187    1.9831   22.1150 C.1     1  UNL1       -0.0897
     11 C         -17.2651    0.8438   21.1402 C.1     1  UNL1       -0.0872
     12 C         -18.6082   -0.9998   19.8966 C.3     1  UNL1        0.0591
     13 C         -18.8597   -2.3576   20.4825 C.2     1  UNL1        0.0517
     14 O         -19.7563   -2.5051   21.6758 O.co2   1  UNL1       -0.5491
     15 O         -18.2145   -3.5678   19.8749 O.co2   1  UNL1       -0.5491
     16 C         -11.6685   -3.3439   17.6932 C.ar    1  UNL1        0.1791
     17 C         -10.3922   -3.3665   18.4810 C.ar    1  UNL1        0.0406
     18 C          -9.7500   -4.6760   18.8312 C.ar    1  UNL1        0.0072
     19 C         -10.3841   -5.9630   18.3938 C.ar    1  UNL1        0.0746
     20 C         -11.6604   -5.9406   17.6060 C.ar    1  UNL1        0.0441
     21 C         -12.3026   -4.6310   17.2557 C.ar    1  UNL1        0.1785
     22 C          -9.7419   -7.2726   18.7441 C.3     1  UNL1        0.4187
     23 F          -9.0997   -8.5821   19.0943 F       1  UNL1       -0.1659
     24 F          -8.9932   -6.6069   19.8604 F       1  UNL1       -0.1659
     25 F         -10.4906   -7.9383   17.6277 F       1  UNL1       -0.1659
     26 O         -13.5789   -4.6085   16.4680 O.3     1  UNL1       -0.4205
     27 C         -14.8797   -4.9388   17.1380 C.3     1  UNL1        0.5087
     28 F         -15.1465   -6.3375   17.6096 F       1  UNL1       -0.1550
     29 F         -15.9137   -3.8704   17.3363 F       1  UNL1       -0.1550
@<TRIPOS>UNITY_ATOM_ATTR
14 1
charge -1
@<TRIPOS>BOND
     1     9    10    1
     2    10    11    3
     3    11     8    1
     4     8    12    1
     5    12    13    1
     6    13    14   ar
     7    13    15   ar
     8     8     2    1
     9     2     3   ar
    10     3     4   ar
    11     4     5   ar
    12     5     1    1
    13     1    16    1
    14    16    17   ar
    15    17    18   ar
    16    18    19   ar
    17    19    22    1
    18    22    23    1
    19    22    24    1
    20    22    25    1
    21    19    20   ar
    22    20    21   ar
    23    21    26    1
    24    26    27    1
    25    27    28    1
    26    27    29    1
    27     5     6   ar
    28     6     7   ar
    29     7     2   ar
    30    21    16   ar
@<TRIPOS>MOLECULE
*****
 29 30 0 0 0
SMALL
GASTEIGER

@<TRIPOS>ATOM
      1 O          -8.3661  -16.3537   23.4338 O.3     1  UNL1       -0.4504
      2 C          -5.2862  -18.7812   21.2267 C.ar    1  UNL1       -0.0099
      3 C          -6.6809  -18.6690   20.6862 C.ar    1  UNL1       -0.0002
      4 C          -7.7075  -17.8598   21.4219 C.ar    1  UNL1        0.0372
      5 C          -7.3395  -17.1628   22.6981 C.ar    1  UNL1        0.1454
      6 C          -5.9447  -17.2750   23.2385 C.ar    1  UNL1        0.0372
      7 C          -4.9181  -18.0841   22.5028 C.ar    1  UNL1       -0.0002
      8 C          -4.2595  -19.5903   20.4909 C.3     1  UNL1        0.0917
      9 C          -0.1422  -17.9105   19.8014 C.3     1  UNL1        0.0900
     10 C          -1.5146  -18.4704   20.0312 C.1     1  UNL1       -0.0897
     11 C          -2.8871  -19.0304   20.2611 C.1     1  UNL1       -0.0872
     12 C          -4.6053  -20.9594   19.9850 C.3     1  UNL1        0.0591
     13 C          -5.9348  -21.5686   20.3187 C.2     1  UNL1        0.0517
     14 O          -6.8949  -21.9209   19.2214 O.co2   1  UNL1       -0.5491
     15 O          -6.3042  -21.8255   21.7496 O.co2   1  UNL1       -0.5491
     16 C          -9.7691  -16.8666   23.5693 C.ar    1  UNL1        0.1791
     17 C         -10.1220  -17.7982   24.6908 C.ar    1  UNL1        0.0406
     18 C         -11.5250  -18.3112   24.8264 C.ar    1  UNL1        0.0072
     19 C         -12.5751  -17.8926   23.8405 C.ar    1  UNL1        0.0746
     20 C         -12.2223  -16.9611   22.7190 C.ar    1  UNL1        0.0441
     21 C         -10.8192  -16.4481   22.5834 C.ar    1  UNL1        0.1785
     22 C         -13.9782  -18.4057   23.9760 C.3     1  UNL1        0.4187
     23 F         -15.3812  -18.9187   24.1116 F       1  UNL1       -0.1659
     24 F         -14.1742  -18.2610   22.4960 F       1  UNL1       -0.1659
     25 F         -13.7822  -18.5503   25.4561 F       1  UNL1       -0.1659
     26 O         -10.4663  -15.5166   21.4620 O.3     1  UNL1       -0.4205
     27 C         -10.7805  -15.8956   20.0451 C.3     1  UNL1        0.5087
     28 F         -11.1233  -17.3163   19.7072 F       1  UNL1       -0.1550
     29 F         -10.7519  -14.8541   18.9661 F       1  UNL1       -0.1550
@<TRIPOS>UNITY_ATOM_ATTR
14 1
charge -1
@<TRIPOS>BOND
     1     9    10    1
     2    10    11    3
     3    11     8    1
     4     8    12    1
     5    12    13    1
     6    13    14   ar
     7    13    15   ar
     8     8     2    1
     9     2     3   ar
    10     3     4   ar
    11     4     5   ar
    12     5     1    1
    13     1    16    1
    14    16    17   ar
    15    17    18   ar
    16    18    19   ar
    17    19    22    1
    18    22    23    1
    19    22    24    1
    20    22    25    1
    21    19    20   ar
    22    20    21   ar
    23    21    26    1
    24    26    27    1
    25    27    28    1
    26    27    29    1
    27     5     6   ar
    28     6     7   ar
    29     7     2   ar
    30    21    16   ar
