@<TRIPOS>MOLECULE
*****
 24 26 0 0 0
SMALL
GASTEIGER

@<TRIPOS>ATOM
      1 C          -6.4864  -17.9957   22.2938 C.ar    1  UNL1        0.0880
      2 C          -6.0299  -19.3437   21.8200 C.ar    1  UNL1        0.0076
      3 C          -4.6184  -19.7870   22.0669 C.ar    1  UNL1        0.0003
      4 C          -3.6633  -18.8823   22.7875 C.ar    1  UNL1        0.0031
      5 C          -4.1197  -17.5343   23.2612 C.ar    1  UNL1        0.0376
      6 C          -5.5313  -17.0910   23.0144 C.ar    1  UNL1        0.1496
      7 N          -9.0422  -18.4390   22.4402 N.am    1  UNL1       -0.2762
      8 C          -7.8980  -17.5524   22.0470 C.2     1  UNL1        0.2520
      9 O          -8.1654  -16.2224   21.4069 O.2     1  UNL1       -0.2698
     10 C         -10.4538  -17.9957   22.1934 C.3     1  UNL1        0.0927
     11 C         -11.2417  -17.0463   23.0466 C.3     1  UNL1        0.0383
     12 C         -12.6002  -16.8877   22.4306 C.3     1  UNL1        0.0704
     13 N         -12.6518  -17.7391   21.1967 N.3     1  UNL1       -0.2960
     14 C         -11.3253  -18.4238   21.0501 C.3     1  UNL1        0.0887
     15 H         -12.8318  -17.1548   20.3802 H       1  UNL1        0.1233
     16 C          -9.7172  -20.3054   24.1168 C.3     1  UNL1        0.0233
     17 C          -8.7749  -19.7690   23.0803 C.3     1  UNL1        0.0938
     18 O          -5.9878  -15.7429   23.4882 O.3     1  UNL1       -0.4533
     19 C          -6.6699  -15.6065   24.8171 C.ar    1  UNL1        0.1453
     20 C          -5.8544  -15.5137   26.0727 C.ar    1  UNL1        0.0375
     21 C          -6.5365  -15.3773   27.4016 C.ar    1  UNL1        0.0031
     22 C          -8.0341  -15.3335   27.4750 C.ar    1  UNL1        0.0002
     23 C          -8.8495  -15.4262   26.2195 C.ar    1  UNL1        0.0031
     24 C          -8.1674  -15.5627   24.8905 C.ar    1  UNL1        0.0375
@<TRIPOS>BOND
     1    16    17    1
     2    17     7    1
     3     7     8   am
     4     8     9    2
     5     8     1    1
     6     1     2   ar
     7     2     3   ar
     8     3     4   ar
     9     4     5   ar
    10     5     6   ar
    11     6    18    1
    12    18    19    1
    13    19    20   ar
    14    20    21   ar
    15    21    22   ar
    16    22    23   ar
    17    23    24   ar
    18    10     7    1
    19    10    11    1
    20    11    12    1
    21    12    13    1
    22    13    14    1
    23     6     1   ar
    24    24    19   ar
    25    14    10    1
    26    13    15    1
@<TRIPOS>MOLECULE
*****
 24 26 0 0 0
SMALL
GASTEIGER

@<TRIPOS>ATOM
      1 C          -7.7039  -15.9746   24.3926 C.ar    1  UNL1        0.0880
      2 C          -8.5196  -15.9021   25.6493 C.ar    1  UNL1        0.0076
      3 C          -7.8528  -15.6074   26.9602 C.ar    1  UNL1        0.0003
      4 C          -6.3703  -15.3853   27.0144 C.ar    1  UNL1        0.0031
      5 C          -5.5547  -15.4578   25.7577 C.ar    1  UNL1        0.0376
      6 C          -6.2214  -15.7525   24.4468 C.ar    1  UNL1        0.1496
      7 N          -9.3098  -17.4329   22.9626 N.am    1  UNL1       -0.2762
      8 C          -8.3707  -16.2693   23.0816 C.2     1  UNL1        0.2520
      9 O          -8.0983  -15.4004   21.8896 O.2     1  UNL1       -0.2698
     10 C          -9.9765  -17.7276   21.6516 C.3     1  UNL1        0.0927
     11 C          -9.6218  -18.8427   20.7131 C.3     1  UNL1        0.0383
     12 C         -10.5411  -18.7632   19.5304 C.3     1  UNL1        0.0704
     13 N         -11.4639  -17.5989   19.7380 N.3     1  UNL1       -0.2960
     14 C         -11.1150  -16.9589   21.0490 C.3     1  UNL1        0.0887
     15 H         -12.4309  -17.9229   19.7575 H       1  UNL1        0.1233
     16 C         -10.9901  -18.6965   24.4889 C.3     1  UNL1        0.0233
     17 C          -9.5821  -18.3018   24.1545 C.3     1  UNL1        0.0938
     18 O          -5.4057  -15.8251   23.1900 O.3     1  UNL1       -0.4533
     19 C          -4.6576  -17.0807   22.8529 C.ar    1  UNL1        0.1453
     20 C          -5.4081  -18.3501   22.5781 C.ar    1  UNL1        0.0375
     21 C          -4.6599  -19.6057   22.2410 C.ar    1  UNL1        0.0031
     22 C          -3.1612  -19.5920   22.1788 C.ar    1  UNL1        0.0002
     23 C          -2.4108  -18.3226   22.4536 C.ar    1  UNL1        0.0031
     24 C          -3.1589  -17.0670   22.7907 C.ar    1  UNL1        0.0375
@<TRIPOS>BOND
     1    16    17    1
     2    17     7    1
     3     7     8   am
     4     8     9    2
     5     8     1    1
     6     1     2   ar
     7     2     3   ar
     8     3     4   ar
     9     4     5   ar
    10     5     6   ar
    11     6    18    1
    12    18    19    1
    13    19    20   ar
    14    20    21   ar
    15    21    22   ar
    16    22    23   ar
    17    23    24   ar
    18    10     7    1
    19    10    11    1
    20    11    12    1
    21    12    13    1
    22    13    14    1
    23     6     1   ar
    24    24    19   ar
    25    14    10    1
    26    13    15    1
@<TRIPOS>MOLECULE
*****
 24 26 0 0 0
SMALL
GASTEIGER

@<TRIPOS>ATOM
      1 C          -9.2442  -17.5829   21.7766 C.ar    1  UNL1        0.0880
      2 C         -10.3211  -16.8703   21.0134 C.ar    1  UNL1        0.0076
      3 C         -11.0722  -17.5866   19.9305 C.ar    1  UNL1        0.0003
      4 C         -10.7466  -19.0155   19.6109 C.ar    1  UNL1        0.0031
      5 C          -9.6697  -19.7281   20.3741 C.ar    1  UNL1        0.0376
      6 C          -8.9185  -19.0118   21.4570 C.ar    1  UNL1        0.1496
      7 N          -8.9432  -16.9801   24.2858 N.am    1  UNL1       -0.2762
      8 C          -8.4930  -16.8666   22.8595 C.2     1  UNL1        0.2520
      9 O          -7.2915  -16.0369   22.5160 O.2     1  UNL1       -0.2698
     10 C          -8.1920  -16.2638   25.3687 C.3     1  UNL1        0.0927
     11 C          -8.3959  -16.4355   26.8449 C.3     1  UNL1        0.0383
     12 C          -7.4349  -15.5278   27.5541 C.3     1  UNL1        0.0704
     13 N          -6.6372  -14.7954   26.5162 N.3     1  UNL1       -0.2960
     14 C          -7.1051  -15.2502   25.1656 C.3     1  UNL1        0.0887
     15 H          -5.6457  -15.0071   26.6284 H       1  UNL1        0.1233
     16 C          -9.9779  -19.2541   24.9989 C.3     1  UNL1        0.0233
     17 C         -10.1447  -17.8099   24.6293 C.3     1  UNL1        0.0938
     18 O          -7.8416  -19.7244   22.2202 O.3     1  UNL1       -0.4533
     19 C          -6.4441  -19.7727   21.6774 C.ar    1  UNL1        0.1453
     20 C          -5.3658  -18.9416   22.3071 C.ar    1  UNL1        0.0375
     21 C          -3.9683  -18.9898   21.7642 C.ar    1  UNL1        0.0031
     22 C          -3.6492  -19.8692   20.5916 C.ar    1  UNL1        0.0002
     23 C          -4.7275  -20.7003   19.9619 C.ar    1  UNL1        0.0031
     24 C          -6.1250  -20.6520   20.5048 C.ar    1  UNL1        0.0375
@<TRIPOS>BOND
     1    16    17    1
     2    17     7    1
     3     7     8   am
     4     8     9    2
     5     8     1    1
     6     1     2   ar
     7     2     3   ar
     8     3     4   ar
     9     4     5   ar
    10     5     6   ar
    11     6    18    1
    12    18    19    1
    13    19    20   ar
    14    20    21   ar
    15    21    22   ar
    16    22    23   ar
    17    23    24   ar
    18    10     7    1
    19    10    11    1
    20    11    12    1
    21    12    13    1
    22    13    14    1
    23     6     1   ar
    24    24    19   ar
    25    14    10    1
    26    13    15    1
@<TRIPOS>MOLECULE
*****
 24 26 0 0 0
SMALL
GASTEIGER

@<TRIPOS>ATOM
      1 C          -9.4666  -18.2578   22.0820 C.ar    1  UNL1        0.0880
      2 C         -10.6180  -19.2083   21.9380 C.ar    1  UNL1        0.0076
      3 C         -12.0189  -18.7320   22.1835 C.ar    1  UNL1        0.0003
      4 C         -12.2685  -17.3051   22.5730 C.ar    1  UNL1        0.0031
      5 C         -11.1171  -16.3546   22.7170 C.ar    1  UNL1        0.0376
      6 C          -9.7162  -16.8309   22.4715 C.ar    1  UNL1        0.1496
      7 N          -7.6534  -19.1762   20.4636 N.am    1  UNL1       -0.2762
      8 C          -8.0655  -18.7342   21.8365 C.2     1  UNL1        0.2520
      9 O          -7.0767  -18.7685   22.9638 O.2     1  UNL1       -0.2698
     10 C          -6.2524  -19.6526   20.2181 C.3     1  UNL1        0.0927
     11 C          -5.0885  -18.7971   19.8137 C.3     1  UNL1        0.0383
     12 C          -3.8860  -19.6838   19.6795 C.3     1  UNL1        0.0704
     13 N          -4.3068  -21.0873   20.0010 N.3     1  UNL1       -0.2960
     14 C          -5.7693  -21.0679   20.3339 C.3     1  UNL1        0.0887
     15 H          -3.7747  -21.4340   20.7992 H       1  UNL1        0.1233
     16 C          -9.0180  -20.4105   18.6294 C.3     1  UNL1        0.0233
     17 C          -8.6423  -19.1419   19.3363 C.3     1  UNL1        0.0938
     18 O          -8.5647  -15.8804   22.6155 O.3     1  UNL1       -0.4533
     19 C          -7.8913  -15.7140   23.9455 C.ar    1  UNL1        0.1453
     20 C          -6.4187  -15.4359   24.0110 C.ar    1  UNL1        0.0375
     21 C          -5.7454  -15.2695   25.3410 C.ar    1  UNL1        0.0031
     22 C          -6.5446  -15.3813   26.6055 C.ar    1  UNL1        0.0002
     23 C          -8.0171  -15.6594   26.5399 C.ar    1  UNL1        0.0031
     24 C          -8.6904  -15.8258   25.2099 C.ar    1  UNL1        0.0375
@<TRIPOS>BOND
     1    16    17    1
     2    17     7    1
     3     7     8   am
     4     8     9    2
     5     8     1    1
     6     1     2   ar
     7     2     3   ar
     8     3     4   ar
     9     4     5   ar
    10     5     6   ar
    11     6    18    1
    12    18    19    1
    13    19    20   ar
    14    20    21   ar
    15    21    22   ar
    16    22    23   ar
    17    23    24   ar
    18    10     7    1
    19    10    11    1
    20    11    12    1
    21    12    13    1
    22    13    14    1
    23     6     1   ar
    24    24    19   ar
    25    14    10    1
    26    13    15    1
@<TRIPOS>MOLECULE
*****
 24 26 0 0 0
SMALL
GASTEIGER

@<TRIPOS>ATOM
      1 C          -9.6043  -18.0473   22.2372 C.ar    1  UNL1        0.0880
      2 C         -10.7468  -17.3877   21.5233 C.ar    1  UNL1        0.0076
      3 C         -11.1961  -17.9047   20.1889 C.ar    1  UNL1        0.0003
      4 C         -10.5031  -19.0814   19.5683 C.ar    1  UNL1        0.0031
      5 C          -9.3606  -19.7410   20.2822 C.ar    1  UNL1        0.0376
      6 C          -8.9113  -19.2240   21.6166 C.ar    1  UNL1        0.1496
      7 N          -8.1455  -16.4233   23.6459 N.am    1  UNL1       -0.2762
      8 C          -9.1549  -17.5303   23.5717 C.2     1  UNL1        0.2520
      9 O          -9.7150  -18.1204   24.8319 O.2     1  UNL1       -0.2698
     10 C          -7.6961  -15.9063   24.9804 C.3     1  UNL1        0.0927
     11 C          -6.2744  -15.7593   25.4356 C.3     1  UNL1        0.0383
     12 C          -6.2891  -15.2077   26.8305 C.3     1  UNL1        0.0704
     13 N          -7.7198  -15.0137   27.2372 N.3     1  UNL1       -0.2960
     14 C          -8.5894  -15.4455   26.0938 C.3     1  UNL1        0.0887
     15 H          -7.8893  -14.0304   27.4488 H       1  UNL1        0.1233
     16 C          -8.3369  -14.7536   21.6645 C.3     1  UNL1        0.0233
     17 C          -7.5855  -15.8332   22.3856 C.3     1  UNL1        0.0938
     18 O          -7.7688  -19.8837   22.3305 O.3     1  UNL1       -0.4533
     19 C          -6.3846  -19.8125   21.7570 C.ar    1  UNL1        0.1453
     20 C          -5.3886  -18.8421   22.3194 C.ar    1  UNL1        0.0375
     21 C          -4.0044  -18.7710   21.7458 C.ar    1  UNL1        0.0031
     22 C          -3.6163  -19.6703   20.6098 C.ar    1  UNL1        0.0002
     23 C          -4.6122  -20.6407   20.0473 C.ar    1  UNL1        0.0031
     24 C          -5.9964  -20.7118   20.6209 C.ar    1  UNL1        0.0375
@<TRIPOS>BOND
     1    16    17    1
     2    17     7    1
     3     7     8   am
     4     8     9    2
     5     8     1    1
     6     1     2   ar
     7     2     3   ar
     8     3     4   ar
     9     4     5   ar
    10     5     6   ar
    11     6    18    1
    12    18    19    1
    13    19    20   ar
    14    20    21   ar
    15    21    22   ar
    16    22    23   ar
    17    23    24   ar
    18    10     7    1
    19    10    11    1
    20    11    12    1
    21    12    13    1
    22    13    14    1
    23     6     1   ar
    24    24    19   ar
    25    14    10    1
    26    13    15    1
@<TRIPOS>MOLECULE
*****
 24 26 0 0 0
SMALL
GASTEIGER

@<TRIPOS>ATOM
      1 C          -8.0153  -19.0568   22.7887 C.ar    1  UNL1        0.0880
      2 C          -7.5303  -20.3798   22.2745 C.ar    1  UNL1        0.0076
      3 C          -6.2211  -20.4677   21.5478 C.ar    1  UNL1        0.0003
      4 C          -5.3968  -19.2326   21.3353 C.ar    1  UNL1        0.0031
      5 C          -5.8818  -17.9096   21.8495 C.ar    1  UNL1        0.0376
      6 C          -7.1910  -17.8217   22.5762 C.ar    1  UNL1        0.1496
      7 N         -10.5575  -18.5206   22.7881 N.am    1  UNL1       -0.2762
      8 C          -9.3246  -18.9688   23.5154 C.2     1  UNL1        0.2520
      9 O          -9.4009  -19.3290   24.9695 O.2     1  UNL1       -0.2698
     10 C         -11.8668  -18.4327   23.5149 C.3     1  UNL1        0.0927
     11 C         -13.1298  -17.8212   22.9850 C.3     1  UNL1        0.0383
     12 C         -14.1866  -17.9513   24.0417 C.3     1  UNL1        0.0704
     13 N         -13.5765  -18.6432   25.2246 N.3     1  UNL1       -0.2960
     14 C         -12.1428  -18.9407   24.8989 C.3     1  UNL1        0.0887
     15 H         -14.0761  -19.5123   25.4129 H       1  UNL1        0.1233
     16 C         -10.7183  -19.2092   20.2881 C.3     1  UNL1        0.0233
     17 C         -10.4811  -18.1604   21.3340 C.3     1  UNL1        0.0938
     18 O          -7.6760  -16.4986   23.0904 O.3     1  UNL1       -0.4533
     19 C          -7.3363  -16.0662   24.4860 C.ar    1  UNL1        0.1453
     20 C          -8.4092  -15.9978   25.5321 C.ar    1  UNL1        0.0375
     21 C          -8.0695  -15.5654   26.9276 C.ar    1  UNL1        0.0031
     22 C          -6.6569  -15.2014   27.2771 C.ar    1  UNL1        0.0002
     23 C          -5.5841  -15.2698   26.2310 C.ar    1  UNL1        0.0031
     24 C          -5.9238  -15.7022   24.8355 C.ar    1  UNL1        0.0375
@<TRIPOS>BOND
     1    16    17    1
     2    17     7    1
     3     7     8   am
     4     8     9    2
     5     8     1    1
     6     1     2   ar
     7     2     3   ar
     8     3     4   ar
     9     4     5   ar
    10     5     6   ar
    11     6    18    1
    12    18    19    1
    13    19    20   ar
    14    20    21   ar
    15    21    22   ar
    16    22    23   ar
    17    23    24   ar
    18    10     7    1
    19    10    11    1
    20    11    12    1
    21    12    13    1
    22    13    14    1
    23     6     1   ar
    24    24    19   ar
    25    14    10    1
    26    13    15    1
@<TRIPOS>MOLECULE
*****
 24 26 0 0 0
SMALL
GASTEIGER

@<TRIPOS>ATOM
      1 C         -10.4779  -16.8685   22.7549 C.ar    1  UNL1        0.0880
      2 C         -11.5316  -15.8139   22.5895 C.ar    1  UNL1        0.0076
      3 C         -12.9806  -16.2002   22.5559 C.ar    1  UNL1        0.0003
      4 C         -13.3758  -17.6412   22.6876 C.ar    1  UNL1        0.0031
      5 C         -12.3221  -18.6958   22.8530 C.ar    1  UNL1        0.0376
      6 C         -10.8731  -18.3094   22.8867 C.ar    1  UNL1        0.1496
      7 N          -8.2859  -16.4701   24.0916 N.am    1  UNL1       -0.2762
      8 C          -9.0288  -16.4821   22.7886 C.2     1  UNL1        0.2520
      9 O          -8.3228  -16.1078   21.5192 O.2     1  UNL1       -0.2698
     10 C          -6.8369  -16.0837   24.1253 C.3     1  UNL1        0.0927
     11 C          -5.7043  -16.8558   23.5161 C.3     1  UNL1        0.0383
     12 C          -4.4334  -16.1067   23.7883 C.3     1  UNL1        0.0704
     13 N          -4.7808  -14.8718   24.5657 N.3     1  UNL1       -0.2960
     14 C          -6.2662  -14.8576   24.7740 C.3     1  UNL1        0.0887
     15 H          -4.4965  -14.0428   24.0438 H       1  UNL1        0.1233
     16 C          -8.4048  -16.4607   26.6870 C.3     1  UNL1        0.0233
     17 C          -8.9920  -16.8444   25.3610 C.3     1  UNL1        0.0938
     18 O          -9.8193  -19.3641   23.0521 O.3     1  UNL1       -0.4533
     19 C          -8.7953  -19.5763   21.9767 C.ar    1  UNL1        0.1453
     20 C          -9.1811  -19.4305   20.5345 C.ar    1  UNL1        0.0375
     21 C          -8.1572  -19.6427   19.4591 C.ar    1  UNL1        0.0031
     22 C          -6.7475  -20.0008   19.8259 C.ar    1  UNL1        0.0002
     23 C          -6.3617  -20.1466   21.2681 C.ar    1  UNL1        0.0031
     24 C          -7.3857  -19.9344   22.3435 C.ar    1  UNL1        0.0375
@<TRIPOS>BOND
     1    16    17    1
     2    17     7    1
     3     7     8   am
     4     8     9    2
     5     8     1    1
     6     1     2   ar
     7     2     3   ar
     8     3     4   ar
     9     4     5   ar
    10     5     6   ar
    11     6    18    1
    12    18    19    1
    13    19    20   ar
    14    20    21   ar
    15    21    22   ar
    16    22    23   ar
    17    23    24   ar
    18    10     7    1
    19    10    11    1
    20    11    12    1
    21    12    13    1
    22    13    14    1
    23     6     1   ar
    24    24    19   ar
    25    14    10    1
    26    13    15    1
@<TRIPOS>MOLECULE
*****
 24 26 0 0 0
SMALL
GASTEIGER

@<TRIPOS>ATOM
      1 C          -9.6829  -19.4927   21.1195 C.ar    1  UNL1        0.0880
      2 C         -10.0031  -19.7333   19.6740 C.ar    1  UNL1        0.0076
      3 C          -8.9078  -19.7107   18.6494 C.ar    1  UNL1        0.0003
      4 C          -7.4923  -19.4476   19.0703 C.ar    1  UNL1        0.0031
      5 C          -7.1721  -19.2070   20.5158 C.ar    1  UNL1        0.0376
      6 C          -8.2674  -19.2295   21.5404 C.ar    1  UNL1        0.1496
      7 N         -11.5499  -18.2647   22.4447 N.am    1  UNL1       -0.2762
      8 C         -10.7781  -19.5153   22.1442 C.2     1  UNL1        0.2520
      9 O         -11.1016  -20.7885   22.8683 O.2     1  UNL1       -0.2698
     10 C         -12.6452  -18.2872   23.4694 C.3     1  UNL1        0.0927
     11 C         -12.4918  -18.6536   24.9159 C.3     1  UNL1        0.0383
     12 C         -13.8379  -18.5402   25.5680 C.3     1  UNL1        0.0704
     13 N         -14.8232  -18.1038   24.5245 N.3     1  UNL1       -0.2960
     14 C         -14.0860  -17.9475   23.2276 C.3     1  UNL1        0.0887
     15 H         -15.2416  -17.2135   24.7943 H       1  UNL1        0.1233
     16 C         -11.9948  -16.6131   20.4891 C.3     1  UNL1        0.0233
     17 C         -11.2264  -16.9915   21.7206 C.3     1  UNL1        0.0938
     18 O          -7.9472  -18.9890   22.9860 O.3     1  UNL1       -0.4533
     19 C          -7.8700  -17.5870   23.5138 C.ar    1  UNL1        0.1453
     20 C          -6.7062  -16.7124   23.1520 C.ar    1  UNL1        0.0375
     21 C          -6.6290  -15.3105   23.6798 C.ar    1  UNL1        0.0031
     22 C          -7.7156  -14.7831   24.5694 C.ar    1  UNL1        0.0002
     23 C          -8.8793  -15.6576   24.9311 C.ar    1  UNL1        0.0031
     24 C          -8.9565  -17.0596   24.4033 C.ar    1  UNL1        0.0375
@<TRIPOS>BOND
     1    16    17    1
     2    17     7    1
     3     7     8   am
     4     8     9    2
     5     8     1    1
     6     1     2   ar
     7     2     3   ar
     8     3     4   ar
     9     4     5   ar
    10     5     6   ar
    11     6    18    1
    12    18    19    1
    13    19    20   ar
    14    20    21   ar
    15    21    22   ar
    16    22    23   ar
    17    23    24   ar
    18    10     7    1
    19    10    11    1
    20    11    12    1
    21    12    13    1
    22    13    14    1
    23     6     1   ar
    24    24    19   ar
    25    14    10    1
    26    13    15    1
@<TRIPOS>MOLECULE
*****
 24 26 0 0 0
SMALL
GASTEIGER

@<TRIPOS>ATOM
      1 C          -7.3660  -18.6308   21.9333 C.ar    1  UNL1        0.0880
      2 C          -6.4356  -19.8037   22.0258 C.ar    1  UNL1        0.0076
      3 C          -6.3706  -20.7995   20.9060 C.ar    1  UNL1        0.0003
      4 C          -7.2360  -20.6224   19.6937 C.ar    1  UNL1        0.0031
      5 C          -8.1664  -19.4496   19.6012 C.ar    1  UNL1        0.0376
      6 C          -8.2314  -18.4537   20.7210 C.ar    1  UNL1        0.1496
      7 N          -8.4298  -17.8129   24.1581 N.am    1  UNL1       -0.2762
      8 C          -7.4311  -17.6349   23.0532 C.2     1  UNL1        0.2520
      9 O          -6.4974  -16.4610   23.0680 O.2     1  UNL1       -0.2698
     10 C          -8.4948  -16.8170   25.2779 C.3     1  UNL1        0.0927
     11 C          -8.2657  -17.1085   26.7314 C.3     1  UNL1        0.0383
     12 C          -8.4297  -15.8264   27.4927 C.3     1  UNL1        0.0704
     13 N          -8.7602  -14.7426   26.5097 N.3     1  UNL1       -0.2960
     14 C          -8.8005  -15.3549   25.1409 C.3     1  UNL1        0.0887
     15 H          -8.0456  -14.0156   26.5428 H       1  UNL1        0.1233
     16 C         -10.6977  -18.8925   24.8222 C.3     1  UNL1        0.0233
     17 C          -9.3635  -18.9868   24.1432 C.3     1  UNL1        0.0938
     18 O          -9.1619  -17.2807   20.6285 O.3     1  UNL1       -0.4533
     19 C         -10.5155  -17.3446   21.2717 C.ar    1  UNL1        0.1453
     20 C         -11.0081  -16.1939   22.0984 C.ar    1  UNL1        0.0375
     21 C         -12.3617  -16.2578   22.7416 C.ar    1  UNL1        0.0031
     22 C         -13.2226  -17.4725   22.5582 C.ar    1  UNL1        0.0002
     23 C         -12.7300  -18.6231   21.7315 C.ar    1  UNL1        0.0031
     24 C         -11.3764  -18.5592   21.0883 C.ar    1  UNL1        0.0375
@<TRIPOS>BOND
     1    16    17    1
     2    17     7    1
     3     7     8   am
     4     8     9    2
     5     8     1    1
     6     1     2   ar
     7     2     3   ar
     8     3     4   ar
     9     4     5   ar
    10     5     6   ar
    11     6    18    1
    12    18    19    1
    13    19    20   ar
    14    20    21   ar
    15    21    22   ar
    16    22    23   ar
    17    23    24   ar
    18    10     7    1
    19    10    11    1
    20    11    12    1
    21    12    13    1
    22    13    14    1
    23     6     1   ar
    24    24    19   ar
    25    14    10    1
    26    13    15    1
