@<TRIPOS>MOLECULE
*****
 26 29 0 0 0
SMALL
GASTEIGER

@<TRIPOS>ATOM
      1 C         -10.6872  -19.4844   23.3104 C.3     1  UNL1        0.1490
      2 N          -9.8994  -17.0525   23.7743 N.am    1  UNL1       -0.2396
      3 C          -9.9307  -18.5028   24.1556 C.2     1  UNL1        0.2421
      4 O          -9.2055  -18.9717   25.3821 O.2     1  UNL1       -0.2735
      5 C         -10.8987  -15.1964   18.9331 C.3     1  UNL1        0.0527
      6 C         -11.0839  -15.7304   20.3226 C.ar    1  UNL1        0.0678
      7 C         -12.3970  -15.9936   20.9983 C.ar    1  UNL1        0.0528
      8 S         -12.1130  -16.5209   22.3735 S.2     1  UNL1       -0.0510
      9 C         -10.6245  -16.5836   22.5478 C.ar    1  UNL1        0.1685
     10 N          -9.9885  -16.0950   21.2802 N.ar    1  UNL1       -0.2281
     11 C          -9.1429  -16.0710   24.6195 C.3     1  UNL1        0.0817
     12 C          -8.8565  -15.4600   25.9592 C.3     1  UNL1        0.0220
     13 C          -8.1189  -14.9819   24.7438 C.3     1  UNL1        0.0220
     14 S         -10.1132  -19.9486   22.0047 S.3     1  UNL1       -0.0834
     15 C          -8.6638  -19.7146   21.6970 C.ar    1  UNL1        0.1288
     16 C          -7.6048  -20.4015   22.5073 C.ar    1  UNL1        0.0289
     17 C          -6.1554  -20.1675   22.1996 C.ar    1  UNL1        0.0230
     18 C          -5.7652  -19.2467   21.0818 C.ar    1  UNL1        0.1029
     19 N          -6.8242  -18.5598   20.2715 N.ar    1  UNL1       -0.1475
     20 N          -8.2735  -18.7937   20.5792 N.ar    1  UNL1       -0.1417
     21 C          -4.3158  -19.0127   20.7741 C.ar    1  UNL1        0.0194
     22 C          -3.8803  -18.7592   19.3613 C.ar    1  UNL1        0.0016
     23 C          -2.4309  -18.5252   19.0537 C.ar    1  UNL1        0.0000
     24 C          -1.4170  -18.5448   20.1589 C.ar    1  UNL1        0.0000
     25 C          -1.8525  -18.7984   21.5718 C.ar    1  UNL1        0.0000
     26 C          -3.3018  -19.0323   21.8794 C.ar    1  UNL1        0.0016
@<TRIPOS>BOND
     1     5     6    1
     2     6     7   ar
     3     7     8   ar
     4     8     9   ar
     5     9     2    1
     6     2     3   am
     7     3     4    2
     8     3     1    1
     9     1    14    1
    10    14    15    1
    11    15    16   ar
    12    16    17   ar
    13    17    18   ar
    14    18    21    1
    15    21    22   ar
    16    22    23   ar
    17    23    24   ar
    18    24    25   ar
    19    25    26   ar
    20    18    19   ar
    21    19    20   ar
    22     2    11    1
    23    11    12    1
    24    12    13    1
    25     9    10   ar
    26    10     6   ar
    27    20    15   ar
    28    13    11    1
    29    26    21   ar
@<TRIPOS>MOLECULE
*****
 26 29 0 0 0
SMALL
GASTEIGER

@<TRIPOS>ATOM
      1 C          -9.1841  -19.1610   20.9293 C.3     1  UNL1        0.1490
      2 N         -10.7466  -18.1901   22.7639 N.am    1  UNL1       -0.2396
      3 C         -10.5069  -19.1500   21.6366 C.2     1  UNL1        0.2421
      4 O         -11.5899  -20.0990   21.2164 O.2     1  UNL1       -0.2735
      5 C          -7.2210  -15.5755   25.6990 C.3     1  UNL1        0.0527
      6 C          -8.0430  -16.0393   24.5332 C.ar    1  UNL1        0.0678
      7 C          -7.9511  -15.5222   23.1282 C.ar    1  UNL1        0.0528
      8 S          -8.9526  -16.2649   22.2944 S.2     1  UNL1       -0.0510
      9 C          -9.6636  -17.2411   23.1841 C.ar    1  UNL1        0.1685
     10 N          -9.1014  -17.1016   24.5678 N.ar    1  UNL1       -0.2281
     11 C         -12.0694  -18.1792   23.4712 C.3     1  UNL1        0.0817
     12 C         -13.5170  -17.7888   23.5126 C.3     1  UNL1        0.0220
     13 C         -12.9127  -18.5506   24.6547 C.3     1  UNL1        0.0220
     14 S          -8.0329  -19.9321   21.5037 S.3     1  UNL1       -0.0834
     15 C          -6.6264  -19.4662   21.2690 C.ar    1  UNL1        0.1288
     16 C          -5.6037  -19.5898   22.3593 C.ar    1  UNL1        0.0289
     17 C          -4.1974  -19.1238   22.1246 C.ar    1  UNL1        0.0230
     18 C          -3.8138  -18.5344   20.7997 C.ar    1  UNL1        0.1029
     19 N          -4.8365  -18.4109   19.7094 N.ar    1  UNL1       -0.1475
     20 N          -6.2429  -18.8768   19.9441 N.ar    1  UNL1       -0.1417
     21 C          -2.4074  -18.0685   20.5650 C.ar    1  UNL1        0.0194
     22 C          -1.9811  -16.7070   21.0284 C.ar    1  UNL1        0.0016
     23 C          -0.5747  -16.2411   20.7938 C.ar    1  UNL1        0.0000
     24 C           0.4054  -17.1367   20.0957 C.ar    1  UNL1        0.0000
     25 C          -0.0209  -18.4982   19.6324 C.ar    1  UNL1        0.0000
     26 C          -1.4272  -18.9641   19.8670 C.ar    1  UNL1        0.0016
@<TRIPOS>BOND
     1     5     6    1
     2     6     7   ar
     3     7     8   ar
     4     8     9   ar
     5     9     2    1
     6     2     3   am
     7     3     4    2
     8     3     1    1
     9     1    14    1
    10    14    15    1
    11    15    16   ar
    12    16    17   ar
    13    17    18   ar
    14    18    21    1
    15    21    22   ar
    16    22    23   ar
    17    23    24   ar
    18    24    25   ar
    19    25    26   ar
    20    18    19   ar
    21    19    20   ar
    22     2    11    1
    23    11    12    1
    24    12    13    1
    25     9    10   ar
    26    10     6   ar
    27    20    15   ar
    28    13    11    1
    29    26    21   ar
@<TRIPOS>MOLECULE
*****
 26 29 0 0 0
SMALL
GASTEIGER

@<TRIPOS>ATOM
      1 C          -9.2765  -15.7431   24.7454 C.3     1  UNL1        0.1490
      2 N         -10.2056  -17.9784   23.8018 N.am    1  UNL1       -0.2396
      3 C          -9.4398  -17.2304   24.8525 C.2     1  UNL1        0.2421
      4 O          -8.8373  -17.9695   26.0103 O.2     1  UNL1       -0.2735
      5 C         -10.7398  -15.3217   19.2700 C.3     1  UNL1        0.0527
      6 C         -11.0537  -16.0180   20.5609 C.ar    1  UNL1        0.0678
      7 C         -12.4171  -16.1854   21.1636 C.ar    1  UNL1        0.0528
      8 S         -12.2653  -16.9401   22.4510 S.2     1  UNL1       -0.0510
      9 C         -10.8082  -17.2392   22.6440 C.ar    1  UNL1        0.1685
     10 N         -10.0594  -16.6693   21.4759 N.ar    1  UNL1       -0.2281
     11 C         -10.3689  -19.4656   23.9090 C.3     1  UNL1        0.0817
     12 C         -11.0000  -20.7407   23.4339 C.3     1  UNL1        0.0220
     13 C         -10.0205  -20.7664   24.5696 C.3     1  UNL1        0.0220
     14 S          -7.9098  -15.1307   24.8288 S.3     1  UNL1       -0.0834
     15 C          -6.7560  -15.7715   24.1159 C.ar    1  UNL1        0.1288
     16 C          -5.3644  -15.2510   24.3221 C.ar    1  UNL1        0.0289
     17 C          -4.2107  -15.8919   23.6093 C.ar    1  UNL1        0.0230
     18 C          -4.4486  -17.0532   22.6902 C.ar    1  UNL1        0.1029
     19 N          -5.8401  -17.5737   22.4840 N.ar    1  UNL1       -0.1475
     20 N          -6.9938  -16.9329   23.1968 N.ar    1  UNL1       -0.1417
     21 C          -3.2948  -17.6941   21.9773 C.ar    1  UNL1        0.0194
     22 C          -2.2045  -16.8422   21.3979 C.ar    1  UNL1        0.0016
     23 C          -1.0507  -17.4831   20.6851 C.ar    1  UNL1        0.0000
     24 C          -0.9872  -18.9758   20.5516 C.ar    1  UNL1        0.0000
     25 C          -2.0775  -19.8276   21.1310 C.ar    1  UNL1        0.0000
     26 C          -3.2313  -19.1868   21.8439 C.ar    1  UNL1        0.0016
@<TRIPOS>BOND
     1     5     6    1
     2     6     7   ar
     3     7     8   ar
     4     8     9   ar
     5     9     2    1
     6     2     3   am
     7     3     4    2
     8     3     1    1
     9     1    14    1
    10    14    15    1
    11    15    16   ar
    12    16    17   ar
    13    17    18   ar
    14    18    21    1
    15    21    22   ar
    16    22    23   ar
    17    23    24   ar
    18    24    25   ar
    19    25    26   ar
    20    18    19   ar
    21    19    20   ar
    22     2    11    1
    23    11    12    1
    24    12    13    1
    25     9    10   ar
    26    10     6   ar
    27    20    15   ar
    28    13    11    1
    29    26    21   ar
@<TRIPOS>MOLECULE
*****
 26 29 0 0 0
SMALL
GASTEIGER

@<TRIPOS>ATOM
      1 C         -15.7478   -9.0530   17.5243 C.3     1  UNL1        0.1490
      2 N         -17.7898   -8.2581   18.9201 N.am    1  UNL1       -0.2396
      3 C         -16.9820   -9.3684   18.3163 C.2     1  UNL1        0.2421
      4 O         -17.4084  -10.7941   18.5045 O.2     1  UNL1       -0.2735
      5 C         -15.5898   -3.5263   19.7269 C.3     1  UNL1        0.0527
      6 C         -16.3521   -4.6573   19.1028 C.ar    1  UNL1        0.0678
      7 C         -17.0622   -4.6192   17.7821 C.ar    1  UNL1        0.0528
      8 S         -17.6872   -5.9634   17.5529 S.2     1  UNL1       -0.0510
      9 C         -17.3634   -6.8323   18.7320 C.ar    1  UNL1        0.1685
     10 N         -16.5383   -6.0251   19.6899 N.ar    1  UNL1       -0.2281
     11 C         -19.0239   -8.5735   19.7121 C.3     1  UNL1        0.0817
     12 C         -20.3418   -9.2787   19.8378 C.3     1  UNL1        0.0220
     13 C         -19.8437   -8.4146   20.9582 C.3     1  UNL1        0.0220
     14 S         -14.4638   -8.7349   18.2314 S.3     1  UNL1       -0.0834
     15 C         -13.8372   -7.3809   18.0756 C.ar    1  UNL1        0.1288
     16 C         -12.9242   -6.8499   19.1407 C.ar    1  UNL1        0.0289
     17 C         -12.2978   -5.4960   18.9849 C.ar    1  UNL1        0.0230
     18 C         -12.5843   -4.6730   17.7640 C.ar    1  UNL1        0.1029
     19 N         -13.4972   -5.2040   16.6989 N.ar    1  UNL1       -0.1475
     20 N         -14.1237   -6.5579   16.8547 N.ar    1  UNL1       -0.1417
     21 C         -11.9577   -3.3190   17.6082 C.ar    1  UNL1        0.0194
     22 C         -10.9654   -3.0736   16.5105 C.ar    1  UNL1        0.0016
     23 C         -10.3389   -1.7196   16.3547 C.ar    1  UNL1        0.0000
     24 C         -10.7047   -0.6111   17.2966 C.ar    1  UNL1        0.0000
     25 C         -11.6971   -0.8565   18.3944 C.ar    1  UNL1        0.0000
     26 C         -12.3236   -2.2105   18.5501 C.ar    1  UNL1        0.0016
@<TRIPOS>BOND
     1     5     6    1
     2     6     7   ar
     3     7     8   ar
     4     8     9   ar
     5     9     2    1
     6     2     3   am
     7     3     4    2
     8     3     1    1
     9     1    14    1
    10    14    15    1
    11    15    16   ar
    12    16    17   ar
    13    17    18   ar
    14    18    21    1
    15    21    22   ar
    16    22    23   ar
    17    23    24   ar
    18    24    25   ar
    19    25    26   ar
    20    18    19   ar
    21    19    20   ar
    22     2    11    1
    23    11    12    1
    24    12    13    1
    25     9    10   ar
    26    10     6   ar
    27    20    15   ar
    28    13    11    1
    29    26    21   ar
@<TRIPOS>MOLECULE
*****
 26 29 0 0 0
SMALL
GASTEIGER

@<TRIPOS>ATOM
      1 C           3.9450    0.6700   18.4636 C.3     1  UNL1        0.1490
      2 N           4.0651   -1.7744   19.3356 N.am    1  UNL1       -0.2396
      3 C           3.9241   -0.8063   18.1986 C.2     1  UNL1        0.2421
      4 O           3.7622   -1.3144   16.7966 O.2     1  UNL1       -0.2735
      5 C           3.0485   -0.4411   24.3425 C.3     1  UNL1        0.0527
      6 C           3.7597   -0.6535   23.0391 C.ar    1  UNL1        0.0678
      7 C           5.1925   -0.3154   22.7511 C.ar    1  UNL1        0.0528
      8 S           5.4813   -0.6942   21.3287 S.2     1  UNL1       -0.0510
      9 C           4.2270   -1.2663   20.7376 C.ar    1  UNL1        0.1685
     10 N           3.1631   -1.2412   21.7946 N.ar    1  UNL1       -0.2281
     11 C           4.0443   -3.2506   19.0705 C.3     1  UNL1        0.0817
     12 C           3.2977   -4.5505   19.0177 C.3     1  UNL1        0.0220
     13 C           4.7548   -4.5077   18.6643 C.3     1  UNL1        0.0220
     14 S           2.6590    1.4402   18.5197 S.3     1  UNL1       -0.0834
     15 C           1.9693    1.6534   19.8346 C.ar    1  UNL1        0.1288
     16 C           2.6925    2.3330   20.9594 C.ar    1  UNL1        0.0289
     17 C           2.0028    2.5462   22.2742 C.ar    1  UNL1        0.0230
     18 C           0.5899    2.0798   22.4643 C.ar    1  UNL1        0.1029
     19 N          -0.1333    1.4002   21.3395 N.ar    1  UNL1       -0.1475
     20 N           0.5564    1.1870   20.0247 N.ar    1  UNL1       -0.1417
     21 C          -0.0999    2.2931   23.7792 C.ar    1  UNL1        0.0194
     22 C           0.2093    1.3977   24.9422 C.ar    1  UNL1        0.0016
     23 C          -0.4804    1.6110   26.2571 C.ar    1  UNL1        0.0000
     24 C          -1.4793    2.7196   26.4089 C.ar    1  UNL1        0.0000
     25 C          -1.7885    3.6150   25.2458 C.ar    1  UNL1        0.0000
     26 C          -1.0988    3.4017   23.9310 C.ar    1  UNL1        0.0016
@<TRIPOS>BOND
     1     5     6    1
     2     6     7   ar
     3     7     8   ar
     4     8     9   ar
     5     9     2    1
     6     2     3   am
     7     3     4    2
     8     3     1    1
     9     1    14    1
    10    14    15    1
    11    15    16   ar
    12    16    17   ar
    13    17    18   ar
    14    18    21    1
    15    21    22   ar
    16    22    23   ar
    17    23    24   ar
    18    24    25   ar
    19    25    26   ar
    20    18    19   ar
    21    19    20   ar
    22     2    11    1
    23    11    12    1
    24    12    13    1
    25     9    10   ar
    26    10     6   ar
    27    20    15   ar
    28    13    11    1
    29    26    21   ar
@<TRIPOS>MOLECULE
*****
 26 29 0 0 0
SMALL
GASTEIGER

@<TRIPOS>ATOM
      1 C           4.5433   -2.4721   18.4823 C.3     1  UNL1        0.1490
      2 N           5.5720   -0.1531   17.9218 N.am    1  UNL1       -0.2396
      3 C           5.6589   -1.6505   17.9074 C.2     1  UNL1        0.2421
      4 O           6.8613   -2.3264   17.3180 O.2     1  UNL1       -0.2735
      5 C           0.7045    1.8002   18.5321 C.3     1  UNL1        0.0527
      6 C           2.1322    1.4206   18.7917 C.ar    1  UNL1        0.0678
      7 C           2.9063    1.7051   20.0447 C.ar    1  UNL1        0.0528
      8 S           4.2891    1.1502   19.8713 S.2     1  UNL1       -0.0510
      9 C           4.3696    0.5228   18.5112 C.ar    1  UNL1        0.1685
     10 N           3.0366    0.6899   17.8440 N.ar    1  UNL1       -0.2281
     11 C           6.6876    0.6684   17.3469 C.3     1  UNL1        0.0817
     12 C           7.3190    1.3648   16.1780 C.3     1  UNL1        0.0220
     13 C           7.9884    1.3949   17.5199 C.3     1  UNL1        0.0220
     14 S           4.8403   -3.7931   19.1277 S.3     1  UNL1       -0.0834
     15 C           5.2714   -3.8463   20.5635 C.ar    1  UNL1        0.1288
     16 C           4.4025   -3.2486   21.6301 C.ar    1  UNL1        0.0289
     17 C           4.8336   -3.3019   23.0658 C.ar    1  UNL1        0.0230
     18 C           6.1336   -3.9528   23.4349 C.ar    1  UNL1        0.1029
     19 N           7.0025   -4.5505   22.3683 N.ar    1  UNL1       -0.1475
     20 N           6.5714   -4.4973   20.9326 N.ar    1  UNL1       -0.1417
     21 C           6.5647   -4.0061   24.8707 C.ar    1  UNL1        0.0194
     22 C           7.1970   -5.2512   25.4183 C.ar    1  UNL1        0.0016
     23 C           7.6280   -5.3044   26.8541 C.ar    1  UNL1        0.0000
     24 C           7.4268   -4.1125   27.7422 C.ar    1  UNL1        0.0000
     25 C           6.7945   -2.8673   27.1946 C.ar    1  UNL1        0.0000
     26 C           6.3635   -2.8141   25.7588 C.ar    1  UNL1        0.0016
@<TRIPOS>BOND
     1     5     6    1
     2     6     7   ar
     3     7     8   ar
     4     8     9   ar
     5     9     2    1
     6     2     3   am
     7     3     4    2
     8     3     1    1
     9     1    14    1
    10    14    15    1
    11    15    16   ar
    12    16    17   ar
    13    17    18   ar
    14    18    21    1
    15    21    22   ar
    16    22    23   ar
    17    23    24   ar
    18    24    25   ar
    19    25    26   ar
    20    18    19   ar
    21    19    20   ar
    22     2    11    1
    23    11    12    1
    24    12    13    1
    25     9    10   ar
    26    10     6   ar
    27    20    15   ar
    28    13    11    1
    29    26    21   ar
@<TRIPOS>MOLECULE
*****
 26 29 0 0 0
SMALL
GASTEIGER

@<TRIPOS>ATOM
      1 C           8.8225   -4.5493   22.3275 C.3     1  UNL1        0.1490
      2 N           7.9156   -5.6216   24.5133 N.am    1  UNL1       -0.2396
      3 C           8.7026   -5.7328   23.2412 C.2     1  UNL1        0.2421
      4 O           9.3697   -7.0276   22.8828 O.2     1  UNL1       -0.2735
      5 C           4.5538   -1.5501   24.5644 C.3     1  UNL1        0.0527
      6 C           5.7032   -2.4553   24.8952 C.ar    1  UNL1        0.0678
      7 C           6.7406   -2.2131   25.9512 C.ar    1  UNL1        0.0528
      8 S           7.6956   -3.3698   25.9367 S.2     1  UNL1       -0.0510
      9 C           7.2485   -4.3268   24.8717 C.ar    1  UNL1        0.1685
     10 N           6.0171   -3.7616   24.2280 N.ar    1  UNL1       -0.2281
     11 C           7.7957   -6.8051   25.4269 C.3     1  UNL1        0.0817
     12 C           8.3965   -8.0278   26.0545 C.3     1  UNL1        0.0220
     13 C           6.9872   -7.6323   26.3819 C.3     1  UNL1        0.0220
     14 S           8.2204   -4.5976   20.9545 S.3     1  UNL1       -0.0834
     15 C           7.0427   -3.7305   20.6211 C.ar    1  UNL1        0.1288
     16 C           7.2571   -2.3729   20.0203 C.ar    1  UNL1        0.0289
     17 C           6.0794   -1.5058   19.6869 C.ar    1  UNL1        0.0230
     18 C           4.6873   -1.9964   19.9543 C.ar    1  UNL1        0.1029
     19 N           4.4729   -3.3539   20.5550 N.ar    1  UNL1       -0.1475
     20 N           5.6506   -4.2210   20.8884 N.ar    1  UNL1       -0.1417
     21 C           3.5096   -1.1292   19.6208 C.ar    1  UNL1        0.0194
     22 C           3.6112   -0.1180   18.5176 C.ar    1  UNL1        0.0016
     23 C           2.4335    0.7491   18.1842 C.ar    1  UNL1        0.0000
     24 C           1.1542    0.6050   18.9540 C.ar    1  UNL1        0.0000
     25 C           1.0526   -0.4063   20.0572 C.ar    1  UNL1        0.0000
     26 C           2.2303   -1.2733   20.3906 C.ar    1  UNL1        0.0016
@<TRIPOS>BOND
     1     5     6    1
     2     6     7   ar
     3     7     8   ar
     4     8     9   ar
     5     9     2    1
     6     2     3   am
     7     3     4    2
     8     3     1    1
     9     1    14    1
    10    14    15    1
    11    15    16   ar
    12    16    17   ar
    13    17    18   ar
    14    18    21    1
    15    21    22   ar
    16    22    23   ar
    17    23    24   ar
    18    24    25   ar
    19    25    26   ar
    20    18    19   ar
    21    19    20   ar
    22     2    11    1
    23    11    12    1
    24    12    13    1
    25     9    10   ar
    26    10     6   ar
    27    20    15   ar
    28    13    11    1
    29    26    21   ar
@<TRIPOS>MOLECULE
*****
 26 29 0 0 0
SMALL
GASTEIGER

@<TRIPOS>ATOM
      1 C           6.7337   -0.1844   18.1995 C.3     1  UNL1        0.1490
      2 N           4.1872   -0.1146   18.7101 N.am    1  UNL1       -0.2396
      3 C           5.4315    0.5600   18.2136 C.2     1  UNL1        0.2421
      4 O           5.3736    1.9791   17.7310 O.2     1  UNL1       -0.2735
      5 C           4.6084   -5.3774   18.7931 C.3     1  UNL1        0.0527
      6 C           4.4387   -3.9528   19.2308 C.ar    1  UNL1        0.0678
      7 C           4.2296   -3.4822   20.6397 C.ar    1  UNL1        0.0528
      8 S           4.1099   -1.9872   20.6161 S.2     1  UNL1       -0.0510
      9 C           4.2451   -1.5337   19.1927 C.ar    1  UNL1        0.1685
     10 N           4.4483   -2.7485   18.3366 N.ar    1  UNL1       -0.2281
     11 C           2.8851    0.6298   18.7241 C.3     1  UNL1        0.0817
     12 C           1.4384    0.7239   18.3394 C.3     1  UNL1        0.0220
     13 C           2.0765    1.8251   19.1332 C.3     1  UNL1        0.0220
     14 S           7.6307   -0.1492   19.4012 S.3     1  UNL1       -0.0834
     15 C           7.7466   -1.3547   20.2863 C.ar    1  UNL1        0.1288
     16 C           7.9711   -2.7094   19.6827 C.ar    1  UNL1        0.0289
     17 C           8.0869   -3.9149   20.5678 C.ar    1  UNL1        0.0230
     18 C           7.9783   -3.7657   22.0564 C.ar    1  UNL1        0.1029
     19 N           7.7539   -2.4109   22.6599 N.ar    1  UNL1       -0.1475
     20 N           7.6380   -1.2055   21.7749 N.ar    1  UNL1       -0.1417
     21 C           8.0942   -4.9712   22.9415 C.ar    1  UNL1        0.0194
     22 C           8.8683   -6.1698   22.4787 C.ar    1  UNL1        0.0016
     23 C           8.9842   -7.3754   23.3637 C.ar    1  UNL1        0.0000
     24 C           8.3260   -7.3823   24.7116 C.ar    1  UNL1        0.0000
     25 C           7.5519   -6.1836   25.1744 C.ar    1  UNL1        0.0000
     26 C           7.4360   -4.9781   24.2893 C.ar    1  UNL1        0.0016
@<TRIPOS>BOND
     1     5     6    1
     2     6     7   ar
     3     7     8   ar
     4     8     9   ar
     5     9     2    1
     6     2     3   am
     7     3     4    2
     8     3     1    1
     9     1    14    1
    10    14    15    1
    11    15    16   ar
    12    16    17   ar
    13    17    18   ar
    14    18    21    1
    15    21    22   ar
    16    22    23   ar
    17    23    24   ar
    18    24    25   ar
    19    25    26   ar
    20    18    19   ar
    21    19    20   ar
    22     2    11    1
    23    11    12    1
    24    12    13    1
    25     9    10   ar
    26    10     6   ar
    27    20    15   ar
    28    13    11    1
    29    26    21   ar
@<TRIPOS>MOLECULE
*****
 26 29 0 0 0
SMALL
GASTEIGER

@<TRIPOS>ATOM
      1 C           3.7140   -1.9642   18.6981 C.3     1  UNL1        0.1490
      2 N           5.4209   -0.0584   18.2460 N.am    1  UNL1       -0.2396
      3 C           4.3684   -1.0045   17.7490 C.2     1  UNL1        0.2421
      4 O           3.9701   -0.9909   16.3029 O.2     1  UNL1       -0.2735
      5 C           5.3103    0.5404   23.4910 C.3     1  UNL1        0.0527
      6 C           5.7683    0.2033   22.1030 C.ar    1  UNL1        0.0678
      7 C           7.0955   -0.3891   21.7319 C.ar    1  UNL1        0.0528
      8 S           7.1269   -0.5592   20.2419 S.2     1  UNL1       -0.0510
      9 C           5.8191   -0.0720   19.6921 C.ar    1  UNL1        0.1685
     10 N           4.9795    0.3992   20.8423 N.ar    1  UNL1       -0.2281
     11 C           6.0752    0.9012   17.2969 C.3     1  UNL1        0.0817
     12 C           7.0171    1.1647   16.1596 C.3     1  UNL1        0.0220
     13 C           6.2666    2.3001   16.7902 C.3     1  UNL1        0.0220
     14 S           4.3571   -3.2878   18.9885 S.3     1  UNL1       -0.0834
     15 C           4.9630   -3.5479   20.3359 C.ar    1  UNL1        0.1288
     16 C           4.2318   -3.1359   21.5791 C.ar    1  UNL1        0.0289
     17 C           4.8377   -3.3959   22.9264 C.ar    1  UNL1        0.0230
     18 C           6.1747   -4.0679   23.0305 C.ar    1  UNL1        0.1029
     19 N           6.9059   -4.4799   21.7873 N.ar    1  UNL1       -0.1475
     20 N           6.3000   -4.2198   20.4400 N.ar    1  UNL1       -0.1417
     21 C           6.7805   -4.3279   24.3779 C.ar    1  UNL1        0.0194
     22 C           7.6233   -5.5491   24.5983 C.ar    1  UNL1        0.0016
     23 C           8.2291   -5.8091   25.9457 C.ar    1  UNL1        0.0000
     24 C           7.9922   -4.8479   27.0726 C.ar    1  UNL1        0.0000
     25 C           7.1494   -3.6267   26.8522 C.ar    1  UNL1        0.0000
     26 C           6.5436   -3.3667   25.5048 C.ar    1  UNL1        0.0016
@<TRIPOS>BOND
     1     5     6    1
     2     6     7   ar
     3     7     8   ar
     4     8     9   ar
     5     9     2    1
     6     2     3   am
     7     3     4    2
     8     3     1    1
     9     1    14    1
    10    14    15    1
    11    15    16   ar
    12    16    17   ar
    13    17    18   ar
    14    18    21    1
    15    21    22   ar
    16    22    23   ar
    17    23    24   ar
    18    24    25   ar
    19    25    26   ar
    20    18    19   ar
    21    19    20   ar
    22     2    11    1
    23    11    12    1
    24    12    13    1
    25     9    10   ar
    26    10     6   ar
    27    20    15   ar
    28    13    11    1
    29    26    21   ar
