@<TRIPOS>MOLECULE
*****
 24 27 0 0 0
SMALL
GASTEIGER

@<TRIPOS>ATOM
      1 C          -2.4829  -18.7651   21.5987 C.3     1  UNL1        0.0746
      2 C          -1.9341  -18.1016   22.8270 C.3     1  UNL1        0.2101
      3 O          -3.0916  -17.6083   23.6436 O.3     1  UNL1       -0.4753
      4 C          -4.3557  -17.9669   22.9201 C.ar    1  UNL1        0.1379
      5 C          -5.8007  -17.7348   23.2488 C.ar    1  UNL1        0.0766
      6 C          -6.8696  -18.2176   22.3137 C.ar    1  UNL1        0.1757
      7 C          -6.4934  -18.9326   21.0498 C.ar    1  UNL1        0.1723
      8 C          -5.0483  -19.1647   20.7211 C.ar    1  UNL1        0.0389
      9 C          -3.9795  -18.6819   21.6563 C.ar    1  UNL1        0.0187
     10 O          -7.5622  -19.4154   20.1147 O.3     1  UNL1       -0.4681
     11 C          -9.0072  -19.1833   20.4435 C.3     1  UNL1        0.2533
     12 C          -9.3833  -18.4683   21.7073 C.3     1  UNL1        0.2317
     13 O          -8.3145  -17.9855   22.6424 O.3     1  UNL1       -0.4677
     14 C         -10.8284  -18.2362   22.0360 C.ar    1  UNL1        0.0214
     15 C         -11.7628  -17.7165   20.9839 C.ar    1  UNL1       -0.0007
     16 C         -13.2078  -17.4844   21.3126 C.ar    1  UNL1        0.0003
     17 C         -13.7185  -17.7720   22.6934 C.ar    1  UNL1        0.0067
     18 C         -12.7840  -18.2917   23.7455 C.ar    1  UNL1        0.0344
     19 BR        -13.2946  -18.5792   25.1263 Br      1  UNL1       -0.0490
     20 C         -11.3390  -18.5238   23.4168 C.ar    1  UNL1        0.0060
     21 C          -1.6767  -19.4004   20.5049 C.3     1  UNL1        0.0499
     22 O          -1.2892  -18.1124   18.2821 O.co2   1  UNL1       -0.5492
     23 C          -0.8008  -18.5534   19.6301 C.2     1  UNL1        0.0508
     24 O           0.5635  -18.1473   20.1031 O.co2   1  UNL1       -0.5492
@<TRIPOS>UNITY_ATOM_ATTR
22 1
charge -1
@<TRIPOS>BOND
     1    22    23   ar
     2    23    24   ar
     3    23    21    1
     4     1    21    1
     5     1     2    1
     6     2     3    1
     7     3     4    1
     8     4     5   ar
     9     5     6   ar
    10     6     7   ar
    11     7     8   ar
    12     8     9   ar
    13     7    10    1
    14    10    11    1
    15    11    12    1
    16    12    14    1
    17    14    15   ar
    18    15    16   ar
    19    16    17   ar
    20    17    18   ar
    21    18    19    1
    22    18    20   ar
    23    12    13    1
    24     9     1    1
    25    20    14   ar
    26     9     4   ar
    27    13     6    1
@<TRIPOS>MOLECULE
*****
 24 27 0 0 0
SMALL
GASTEIGER

@<TRIPOS>ATOM
      1 C           3.9137   -0.6383   18.7116 C.3     1  UNL1        0.0746
      2 C           4.3362   -1.0433   17.3305 C.3     1  UNL1        0.2101
      3 O           5.2816   -2.2011   17.4558 O.3     1  UNL1       -0.4753
      4 C           5.4434   -2.5117   18.9144 C.ar    1  UNL1        0.1379
      5 C           6.2513   -3.5492   19.6360 C.ar    1  UNL1        0.0766
      6 C           6.2139   -3.6208   21.1339 C.ar    1  UNL1        0.1757
      7 C           5.3685   -2.6550   21.9100 C.ar    1  UNL1        0.1723
      8 C           4.5605   -1.6174   21.1883 C.ar    1  UNL1        0.0389
      9 C           4.5980   -1.5458   19.6905 C.ar    1  UNL1        0.0187
     10 O           5.3310   -2.7266   23.4078 O.3     1  UNL1       -0.4681
     11 C           6.1389   -3.7641   24.1295 C.3     1  UNL1        0.2533
     12 C           6.9843   -4.7300   23.3533 C.3     1  UNL1        0.2317
     13 O           7.0218   -4.6583   21.8555 O.3     1  UNL1       -0.4677
     14 C           7.7922   -5.7675   24.0751 C.ar    1  UNL1        0.0214
     15 C           8.7167   -6.6656   23.3078 C.ar    1  UNL1       -0.0007
     16 C           9.5247   -7.7031   24.0296 C.ar    1  UNL1        0.0003
     17 C           9.4081   -7.8425   25.5185 C.ar    1  UNL1        0.0067
     18 C           8.4835   -6.9443   26.2858 C.ar    1  UNL1        0.0344
     19 BR          8.3669   -7.0836   27.7747 Br      1  UNL1       -0.0490
     20 C           7.6756   -5.9068   25.5640 C.ar    1  UNL1        0.0060
     21 C           2.9722    0.4781   19.0538 C.3     1  UNL1        0.0499
     22 O           0.9574   -0.8025   20.0786 O.co2   1  UNL1       -0.5492
     23 C           1.4962    0.2200   19.1225 C.2     1  UNL1        0.0508
     24 O           0.5589    0.9844   18.2352 O.co2   1  UNL1       -0.5492
@<TRIPOS>UNITY_ATOM_ATTR
22 1
charge -1
@<TRIPOS>BOND
     1    22    23   ar
     2    23    24   ar
     3    23    21    1
     4     1    21    1
     5     1     2    1
     6     2     3    1
     7     3     4    1
     8     4     5   ar
     9     5     6   ar
    10     6     7   ar
    11     7     8   ar
    12     8     9   ar
    13     7    10    1
    14    10    11    1
    15    11    12    1
    16    12    14    1
    17    14    15   ar
    18    15    16   ar
    19    16    17   ar
    20    17    18   ar
    21    18    19    1
    22    18    20   ar
    23    12    13    1
    24     9     1    1
    25    20    14   ar
    26     9     4   ar
    27    13     6    1
@<TRIPOS>MOLECULE
*****
 24 27 0 0 0
SMALL
GASTEIGER

@<TRIPOS>ATOM
      1 C           8.3575   -5.0088   29.4288 C.3     1  UNL1        0.0746
      2 C           9.1725   -6.2208   29.0869 C.3     1  UNL1        0.2101
      3 O           8.9594   -6.5278   27.6342 O.3     1  UNL1       -0.4753
      4 C           8.0127   -5.5056   27.0783 C.ar    1  UNL1        0.1379
      5 C           7.4414   -5.3084   25.7055 C.ar    1  UNL1        0.0766
      6 C           6.4980   -4.1724   25.4419 C.ar    1  UNL1        0.1757
      7 C           6.1259   -3.2336   26.5510 C.ar    1  UNL1        0.1723
      8 C           6.6973   -3.4308   27.9239 C.ar    1  UNL1        0.0389
      9 C           7.6407   -4.5668   28.1875 C.ar    1  UNL1        0.0187
     10 O           5.1826   -2.0976   26.2874 O.3     1  UNL1       -0.4681
     11 C           4.6112   -1.9004   24.9146 C.3     1  UNL1        0.2533
     12 C           4.9833   -2.8392   23.8054 C.3     1  UNL1        0.2317
     13 O           5.9266   -3.9752   24.0691 O.3     1  UNL1       -0.4677
     14 C           4.4119   -2.6419   22.4326 C.ar    1  UNL1        0.0214
     15 C           3.6300   -1.4014   22.1168 C.ar    1  UNL1       -0.0007
     16 C           3.0586   -1.2041   20.7439 C.ar    1  UNL1        0.0003
     17 C           3.2691   -2.2474   19.6869 C.ar    1  UNL1        0.0067
     18 C           4.0510   -3.4880   20.0028 C.ar    1  UNL1        0.0344
     19 BR          4.2615   -4.5313   18.9458 Br      1  UNL1       -0.0490
     20 C           4.6224   -3.6852   21.3756 C.ar    1  UNL1        0.0060
     21 C           8.2739   -4.3538   30.7757 C.3     1  UNL1        0.0499
     22 O           6.4172   -3.5725   32.4164 O.co2   1  UNL1       -0.5492
     23 C           7.1348   -4.6758   31.6969 C.2     1  UNL1        0.0508
     24 O           6.7131   -6.1012   31.8986 O.co2   1  UNL1       -0.5492
@<TRIPOS>UNITY_ATOM_ATTR
22 1
charge -1
@<TRIPOS>BOND
     1    22    23   ar
     2    23    24   ar
     3    23    21    1
     4     1    21    1
     5     1     2    1
     6     2     3    1
     7     3     4    1
     8     4     5   ar
     9     5     6   ar
    10     6     7   ar
    11     7     8   ar
    12     8     9   ar
    13     7    10    1
    14    10    11    1
    15    11    12    1
    16    12    14    1
    17    14    15   ar
    18    15    16   ar
    19    16    17   ar
    20    17    18   ar
    21    18    19    1
    22    18    20   ar
    23    12    13    1
    24     9     1    1
    25    20    14   ar
    26     9     4   ar
    27    13     6    1
@<TRIPOS>MOLECULE
*****
 24 27 0 0 0
SMALL
GASTEIGER

@<TRIPOS>ATOM
      1 C           3.9636   -0.8317   18.2873 C.3     1  UNL1        0.0746
      2 C           4.0043   -2.1126   19.0667 C.3     1  UNL1        0.2101
      3 O           2.8363   -2.1198   20.0078 O.3     1  UNL1       -0.4753
      4 C           2.0737   -0.8434   19.8100 C.ar    1  UNL1        0.1379
      5 C           0.8349   -0.3032   20.4607 C.ar    1  UNL1        0.0766
      6 C           0.2928    1.0332   20.0481 C.ar    1  UNL1        0.1757
      7 C           0.9895    1.8294   18.9848 C.ar    1  UNL1        0.1723
      8 C           2.2284    1.2891   18.3340 C.ar    1  UNL1        0.0389
      9 C           2.7705   -0.0472   18.7466 C.ar    1  UNL1        0.0187
     10 O           0.4475    3.1658   18.5722 O.3     1  UNL1       -0.4681
     11 C          -0.7913    3.7060   19.2229 C.3     1  UNL1        0.2533
     12 C          -1.4881    2.9098   20.2862 C.3     1  UNL1        0.2317
     13 O          -0.9460    1.5735   20.6988 O.3     1  UNL1       -0.4677
     14 C          -2.7269    3.4501   20.9370 C.ar    1  UNL1        0.0214
     15 C          -2.7102    3.8199   22.3906 C.ar    1  UNL1       -0.0007
     16 C          -3.9491    4.3602   23.0413 C.ar    1  UNL1        0.0003
     17 C          -5.2046    4.5306   22.2384 C.ar    1  UNL1        0.0067
     18 C          -5.2212    4.1608   20.7847 C.ar    1  UNL1        0.0344
     19 BR         -6.4767    4.3312   19.9818 Br      1  UNL1       -0.0490
     20 C          -3.9824    3.6205   20.1341 C.ar    1  UNL1        0.0060
     21 C           4.9440   -0.4093   17.2335 C.3     1  UNL1        0.0499
     22 O           7.3065    0.5321   17.7645 O.co2   1  UNL1       -0.5492
     23 C           6.4128   -0.6291   17.4442 C.2     1  UNL1        0.0508
     24 O           6.9878   -2.0102   17.3347 O.co2   1  UNL1       -0.5492
@<TRIPOS>UNITY_ATOM_ATTR
22 1
charge -1
@<TRIPOS>BOND
     1    22    23   ar
     2    23    24   ar
     3    23    21    1
     4     1    21    1
     5     1     2    1
     6     2     3    1
     7     3     4    1
     8     4     5   ar
     9     5     6   ar
    10     6     7   ar
    11     7     8   ar
    12     8     9   ar
    13     7    10    1
    14    10    11    1
    15    11    12    1
    16    12    14    1
    17    14    15   ar
    18    15    16   ar
    19    16    17   ar
    20    17    18   ar
    21    18    19    1
    22    18    20   ar
    23    12    13    1
    24     9     1    1
    25    20    14   ar
    26     9     4   ar
    27    13     6    1
@<TRIPOS>MOLECULE
*****
 24 27 0 0 0
SMALL
GASTEIGER

@<TRIPOS>ATOM
      1 C          -1.8149    3.3977   25.9460 C.3     1  UNL1        0.0746
      2 C          -1.3783    2.6979   27.1988 C.3     1  UNL1        0.2101
      3 O          -0.3535    1.6694   26.8221 O.3     1  UNL1       -0.4753
      4 C          -0.1567    1.7335   25.3364 C.ar    1  UNL1        0.1379
      5 C           0.7282    0.9573   24.4067 C.ar    1  UNL1        0.0766
      6 C           0.7100    1.2493   22.9355 C.ar    1  UNL1        0.1757
      7 C          -0.1932    2.3175   22.3940 C.ar    1  UNL1        0.1723
      8 C          -1.0782    3.0937   23.3238 C.ar    1  UNL1        0.0389
      9 C          -1.0599    2.8017   24.7949 C.ar    1  UNL1        0.0187
     10 O          -0.2115    2.6094   20.9228 O.3     1  UNL1       -0.4681
     11 C           0.6734    1.8332   19.9932 C.3     1  UNL1        0.2533
     12 C           1.5766    0.7650   20.5346 C.3     1  UNL1        0.2317
     13 O           1.5949    0.4731   22.0058 O.3     1  UNL1       -0.4677
     14 C           2.4616   -0.0112   19.6049 C.ar    1  UNL1        0.0214
     15 C           3.0187    0.6456   18.3768 C.ar    1  UNL1       -0.0007
     16 C           3.9037   -0.1306   17.4470 C.ar    1  UNL1        0.0003
     17 C           4.2314   -1.5637   17.7454 C.ar    1  UNL1        0.0067
     18 C           3.6743   -2.2204   18.9735 C.ar    1  UNL1        0.0344
     19 BR          4.0020   -3.6535   19.2719 Br      1  UNL1       -0.0490
     20 C           2.7894   -1.4442   19.9032 C.ar    1  UNL1        0.0060
     21 C          -2.8285    4.5000   25.8593 C.3     1  UNL1        0.0499
     22 O          -5.1445    3.4093   25.4164 O.co2   1  UNL1       -0.5492
     23 C          -4.2472    4.2488   26.2766 C.2     1  UNL1        0.0508
     24 O          -4.7686    4.8371   27.5542 O.co2   1  UNL1       -0.5492
@<TRIPOS>UNITY_ATOM_ATTR
22 1
charge -1
@<TRIPOS>BOND
     1    22    23   ar
     2    23    24   ar
     3    23    21    1
     4     1    21    1
     5     1     2    1
     6     2     3    1
     7     3     4    1
     8     4     5   ar
     9     5     6   ar
    10     6     7   ar
    11     7     8   ar
    12     8     9   ar
    13     7    10    1
    14    10    11    1
    15    11    12    1
    16    12    14    1
    17    14    15   ar
    18    15    16   ar
    19    16    17   ar
    20    17    18   ar
    21    18    19    1
    22    18    20   ar
    23    12    13    1
    24     9     1    1
    25    20    14   ar
    26     9     4   ar
    27    13     6    1
@<TRIPOS>MOLECULE
*****
 24 27 0 0 0
SMALL
GASTEIGER

@<TRIPOS>ATOM
      1 C           3.9277   -1.6806   19.6129 C.3     1  UNL1        0.0746
      2 C           2.8061   -0.8905   20.2193 C.3     1  UNL1        0.2101
      3 O           2.8301   -1.1148   21.7022 O.3     1  UNL1       -0.4753
      4 C           3.9666   -2.0434   22.0123 C.ar    1  UNL1        0.1379
      5 C           4.4713   -2.6157   23.3037 C.ar    1  UNL1        0.0766
      6 C           5.6545   -3.5377   23.3038 C.ar    1  UNL1        0.1757
      7 C           6.3329   -3.8874   22.0125 C.ar    1  UNL1        0.1723
      8 C           5.8281   -3.3151   20.7211 C.ar    1  UNL1        0.0389
      9 C           4.6449   -2.3931   20.7210 C.ar    1  UNL1        0.0187
     10 O           7.5160   -4.8094   22.0125 O.3     1  UNL1       -0.4681
     11 C           8.0208   -5.3817   23.3039 C.3     1  UNL1        0.2533
     12 C           7.3424   -5.0320   24.5952 C.3     1  UNL1        0.2317
     13 O           6.1592   -4.1100   24.5951 O.3     1  UNL1       -0.4677
     14 C           7.8472   -5.6044   25.8866 C.ar    1  UNL1        0.0214
     15 C           8.3181   -4.6904   26.9788 C.ar    1  UNL1       -0.0007
     16 C           8.8229   -5.2628   28.2702 C.ar    1  UNL1        0.0003
     17 C           8.8568   -6.7491   28.4693 C.ar    1  UNL1        0.0067
     18 C           8.3858   -7.6631   27.3770 C.ar    1  UNL1        0.0344
     19 BR          8.4197   -9.1495   27.5762 Br      1  UNL1       -0.0490
     20 C           7.8811   -7.0907   26.0857 C.ar    1  UNL1        0.0060
     21 C           4.2718   -1.7466   18.1544 C.3     1  UNL1        0.0499
     22 O           5.6065    0.3536   17.4075 O.co2   1  UNL1       -0.5492
     23 C           5.5419   -1.1245   17.6545 C.2     1  UNL1        0.0508
     24 O           6.7475   -1.9805   17.4016 O.co2   1  UNL1       -0.5492
@<TRIPOS>UNITY_ATOM_ATTR
22 1
charge -1
@<TRIPOS>BOND
     1    22    23   ar
     2    23    24   ar
     3    23    21    1
     4     1    21    1
     5     1     2    1
     6     2     3    1
     7     3     4    1
     8     4     5   ar
     9     5     6   ar
    10     6     7   ar
    11     7     8   ar
    12     8     9   ar
    13     7    10    1
    14    10    11    1
    15    11    12    1
    16    12    14    1
    17    14    15   ar
    18    15    16   ar
    19    16    17   ar
    20    17    18   ar
    21    18    19    1
    22    18    20   ar
    23    12    13    1
    24     9     1    1
    25    20    14   ar
    26     9     4   ar
    27    13     6    1
@<TRIPOS>MOLECULE
*****
 24 27 0 0 0
SMALL
GASTEIGER

@<TRIPOS>ATOM
      1 C           3.0182   -1.1137   20.6581 C.3     1  UNL1        0.0746
      2 C           3.1558   -2.0671   19.5082 C.3     1  UNL1        0.2101
      3 O           3.9974   -3.2227   19.9625 O.3     1  UNL1       -0.4753
      4 C           4.3799   -2.9835   21.3931 C.ar    1  UNL1        0.1379
      5 C           5.2010   -3.7843   22.3598 C.ar    1  UNL1        0.0766
      6 C           5.4170   -3.2816   23.7565 C.ar    1  UNL1        0.1757
      7 C           4.8117   -1.9782   24.1864 C.ar    1  UNL1        0.1723
      8 C           3.9906   -1.1774   23.2196 C.ar    1  UNL1        0.0389
      9 C           3.7747   -1.6801   21.8230 C.ar    1  UNL1        0.0187
     10 O           5.0277   -1.4754   25.5830 O.3     1  UNL1       -0.4681
     11 C           5.8488   -2.2762   26.5497 C.3     1  UNL1        0.2533
     12 C           6.4540   -3.5796   26.1198 C.3     1  UNL1        0.2317
     13 O           6.2381   -4.0823   24.7232 O.3     1  UNL1       -0.4677
     14 C           7.2752   -4.3803   27.0866 C.ar    1  UNL1        0.0214
     15 C           8.5879   -4.9624   26.6532 C.ar    1  UNL1       -0.0007
     16 C           9.4091   -5.7631   27.6200 C.ar    1  UNL1        0.0003
     17 C           8.9175   -5.9817   29.0201 C.ar    1  UNL1        0.0067
     18 C           7.6047   -5.3995   29.4535 C.ar    1  UNL1        0.0344
     19 BR          7.1130   -5.6181   30.8537 Br      1  UNL1       -0.0490
     20 C           6.7836   -4.5989   28.4868 C.ar    1  UNL1        0.0060
     21 C           2.2576    0.1791   20.6454 C.3     1  UNL1        0.0499
     22 O          -0.3399    0.1838   20.7006 O.co2   1  UNL1       -0.5492
     23 C           0.9432    0.2689   19.9283 C.2     1  UNL1        0.0508
     24 O           0.9117    0.4437   18.4388 O.co2   1  UNL1       -0.5492
@<TRIPOS>UNITY_ATOM_ATTR
22 1
charge -1
@<TRIPOS>BOND
     1    22    23   ar
     2    23    24   ar
     3    23    21    1
     4     1    21    1
     5     1     2    1
     6     2     3    1
     7     3     4    1
     8     4     5   ar
     9     5     6   ar
    10     6     7   ar
    11     7     8   ar
    12     8     9   ar
    13     7    10    1
    14    10    11    1
    15    11    12    1
    16    12    14    1
    17    14    15   ar
    18    15    16   ar
    19    16    17   ar
    20    17    18   ar
    21    18    19    1
    22    18    20   ar
    23    12    13    1
    24     9     1    1
    25    20    14   ar
    26     9     4   ar
    27    13     6    1
@<TRIPOS>MOLECULE
*****
 24 27 0 0 0
SMALL
GASTEIGER

@<TRIPOS>ATOM
      1 C          -0.5192    2.3266   27.3140 C.3     1  UNL1        0.0746
      2 C          -1.6190    3.2614   26.9057 C.3     1  UNL1        0.2101
      3 O          -1.6430    3.3223   25.4072 O.3     1  UNL1       -0.4753
      4 C          -0.5580    2.4252   24.8893 C.ar    1  UNL1        0.1379
      5 C          -0.1128    2.0893   23.4969 C.ar    1  UNL1        0.0766
      6 C           1.0270    1.1379   23.2829 C.ar    1  UNL1        0.1757
      7 C           1.7216    0.5225   24.4614 C.ar    1  UNL1        0.1723
      8 C           1.2763    0.8585   25.8539 C.ar    1  UNL1        0.0389
      9 C           0.1365    1.8099   26.0678 C.ar    1  UNL1        0.0187
     10 O           2.8613   -0.4288   24.2475 O.3     1  UNL1       -0.4681
     11 C           3.3065   -0.7648   22.8551 C.3     1  UNL1        0.2533
     12 C           2.6120   -0.1495   21.6766 C.3     1  UNL1        0.2317
     13 O           1.4722    0.8019   21.8905 O.3     1  UNL1       -0.4677
     14 C           3.0572   -0.4855   20.2841 C.ar    1  UNL1        0.0214
     15 C           2.6129    0.3626   19.1295 C.ar    1  UNL1       -0.0007
     16 C           3.0582    0.0265   17.7370 C.ar    1  UNL1        0.0003
     17 C           3.9478   -1.1576   17.4993 C.ar    1  UNL1        0.0067
     18 C           4.3921   -2.0057   18.6541 C.ar    1  UNL1        0.0344
     19 BR          5.2816   -3.1898   18.4163 Br      1  UNL1       -0.0490
     20 C           3.9468   -1.6696   20.0464 C.ar    1  UNL1        0.0060
     21 C          -0.1414    1.9710   28.7214 C.3     1  UNL1        0.0499
     22 O          -1.7687    0.1183   29.5393 O.co2   1  UNL1       -0.5492
     23 C          -0.3751    0.5802   29.2321 C.2     1  UNL1        0.0508
     24 O           0.7848   -0.3490   29.4355 O.co2   1  UNL1       -0.5492
@<TRIPOS>UNITY_ATOM_ATTR
22 1
charge -1
@<TRIPOS>BOND
     1    22    23   ar
     2    23    24   ar
     3    23    21    1
     4     1    21    1
     5     1     2    1
     6     2     3    1
     7     3     4    1
     8     4     5   ar
     9     5     6   ar
    10     6     7   ar
    11     7     8   ar
    12     8     9   ar
    13     7    10    1
    14    10    11    1
    15    11    12    1
    16    12    14    1
    17    14    15   ar
    18    15    16   ar
    19    16    17   ar
    20    17    18   ar
    21    18    19    1
    22    18    20   ar
    23    12    13    1
    24     9     1    1
    25    20    14   ar
    26     9     4   ar
    27    13     6    1
@<TRIPOS>MOLECULE
*****
 24 27 0 0 0
SMALL
GASTEIGER

@<TRIPOS>ATOM
      1 C           4.2980   -0.6943   30.9727 C.3     1  UNL1        0.0746
      2 C           3.1068    0.1233   31.3758 C.3     1  UNL1        0.2101
      3 O           2.3100    0.4218   30.1405 O.3     1  UNL1       -0.4753
      4 C           3.0088   -0.2114   28.9739 C.ar    1  UNL1        0.1379
      5 C           2.6851   -0.2489   27.5098 C.ar    1  UNL1        0.0766
      6 C           3.5900   -0.9763   26.5599 C.ar    1  UNL1        0.1757
      7 C           4.8187   -1.6661   27.0743 C.ar    1  UNL1        0.1723
      8 C           5.1424   -1.6285   28.5385 C.ar    1  UNL1        0.0389
      9 C           4.2375   -0.9012   29.4883 C.ar    1  UNL1        0.0187
     10 O           5.7236   -2.3934   26.1246 O.3     1  UNL1       -0.4681
     11 C           5.3998   -2.4310   24.6604 C.3     1  UNL1        0.2533
     12 C           4.1711   -1.7412   24.1461 C.3     1  UNL1        0.2317
     13 O           3.2662   -1.0139   25.0958 O.3     1  UNL1       -0.4677
     14 C           3.8474   -1.7788   22.6818 C.ar    1  UNL1        0.0214
     15 C           2.9641   -0.7254   22.0817 C.ar    1  UNL1       -0.0007
     16 C           2.6404   -0.7630   20.6175 C.ar    1  UNL1        0.0003
     17 C           3.2000   -1.8540   19.7535 C.ar    1  UNL1        0.0067
     18 C           4.0834   -2.9074   20.3536 C.ar    1  UNL1        0.0344
     19 BR          4.6430   -3.9983   19.4896 Br      1  UNL1       -0.0490
     20 C           4.4071   -2.8698   21.8178 C.ar    1  UNL1        0.0060
     21 C           5.3629   -1.2139   31.8926 C.3     1  UNL1        0.0499
     22 O           3.9146   -2.7079   33.4483 O.co2   1  UNL1       -0.5492
     23 C           5.1541   -2.5041   32.6285 C.2     1  UNL1        0.0508
     24 O           6.1848   -3.5907   32.5447 O.co2   1  UNL1       -0.5492
@<TRIPOS>UNITY_ATOM_ATTR
22 1
charge -1
@<TRIPOS>BOND
     1    22    23   ar
     2    23    24   ar
     3    23    21    1
     4     1    21    1
     5     1     2    1
     6     2     3    1
     7     3     4    1
     8     4     5   ar
     9     5     6   ar
    10     6     7   ar
    11     7     8   ar
    12     8     9   ar
    13     7    10    1
    14    10    11    1
    15    11    12    1
    16    12    14    1
    17    14    15   ar
    18    15    16   ar
    19    16    17   ar
    20    17    18   ar
    21    18    19    1
    22    18    20   ar
    23    12    13    1
    24     9     1    1
    25    20    14   ar
    26     9     4   ar
    27    13     6    1
