@<TRIPOS>MOLECULE
*****
 41 45 0 0 0
SMALL
GASTEIGER

@<TRIPOS>ATOM
      1 C           6.6142   -5.1564   29.1337 C.3     1  UNL1        0.0758
      2 C           7.6787   -5.8145   29.9607 C.3     1  UNL1        0.0390
      3 C           8.1013   -4.8477   31.0270 C.3     1  UNL1        0.0964
      4 N           7.2979   -3.5921   30.8590 N.am    1  UNL1       -0.2626
      5 C           7.3963   -2.3618   31.7113 C.2     1  UNL1        0.3073
      6 O           8.3674   -2.3165   32.8537 O.2     1  UNL1       -0.2523
      7 N           6.5237   -1.1767   31.4214 N.am    1  UNL1       -0.2623
      8 C           6.5103    0.1157   32.1827 C.3     1  UNL1        0.0968
      9 C           5.4896    1.0152   31.5511 C.3     1  UNL1        0.0431
     10 C           4.8720    0.2787   30.3994 C.3     1  UNL1        0.0972
     11 C           5.5112   -1.0760   30.3193 C.3     1  UNL1        0.1147
     12 C           6.3789   -3.7829   29.6889 C.3     1  UNL1        0.1106
     13 N           3.8031    0.8046   29.4879 N.am    1  UNL1       -0.2742
     14 C           4.1379    1.1703   28.0722 C.3     1  UNL1        0.1152
     15 C           2.3995    0.9648   29.9921 C.2     1  UNL1        0.2491
     16 O           2.0649    0.5991   31.4078 O.2     1  UNL1       -0.2699
     17 C           1.3307    1.4908   29.0806 C.ar    1  UNL1        0.0536
     18 C           0.4807    0.5380   28.2933 C.ar    1  UNL1        0.0045
     19 C          -0.5881    1.0640   27.3818 C.ar    1  UNL1        0.0001
     20 C          -0.8070    2.5427   27.2575 C.ar    1  UNL1        0.0000
     21 C           0.0429    3.4955   28.0448 C.ar    1  UNL1        0.0001
     22 C           1.1117    2.9695   28.9563 C.ar    1  UNL1        0.0045
     23 C          -1.8760    3.0687   26.3459 C.ar    1  UNL1       -0.0000
     24 C          -3.1769    3.5514   26.9157 C.ar    1  UNL1       -0.0001
     25 C          -4.2457    4.0773   26.0042 C.ar    1  UNL1        0.0039
     26 C          -4.0136    4.1205   24.5229 C.ar    1  UNL1        0.0714
     27 C          -2.7127    3.6378   23.9531 C.ar    1  UNL1        0.0039
     28 C          -1.6439    3.1119   24.8646 C.ar    1  UNL1       -0.0001
     29 C          -5.0825    4.6465   23.6113 C.3     1  UNL1        0.4186
     30 F          -6.1514    5.1724   22.6998 F       1  UNL1       -0.1659
     31 F          -5.3779    3.2496   23.1515 F       1  UNL1       -0.1659
     32 F          -4.7872    6.0434   24.0711 F       1  UNL1       -0.1659
     33 N           5.9089   -5.7649   27.9581 N.3     1  UNL1       -0.2982
     34 H           5.4728   -6.6254   28.2894 H       1  UNL1        0.1232
     35 C           8.9956   -7.1811   23.0117 C.3     1  UNL1        0.0000
     36 C           8.2239   -6.8271   24.2483 C.3     1  UNL1        0.0001
     37 C           8.0379   -7.8456   25.3335 C.3     1  UNL1        0.0014
     38 C           7.2662   -7.4916   26.5701 C.3     1  UNL1        0.0157
     39 C           6.6806   -6.1190   26.7215 C.3     1  UNL1        0.0540
     40 C           6.8667   -5.1004   25.6362 C.3     1  UNL1        0.0157
     41 C           7.6383   -5.4544   24.3996 C.3     1  UNL1        0.0014
@<TRIPOS>BOND
     1    35    36    1
     2    36    37    1
     3    37    38    1
     4    38    39    1
     5    39    33    1
     6     1    33    1
     7     1     2    1
     8     2     3    1
     9     3     4    1
    10     4     5   am
    11     5     6    2
    12     5     7   am
    13     7     8    1
    14     8     9    1
    15     9    10    1
    16    10    13    1
    17    13    14    1
    18    13    15   am
    19    15    16    2
    20    15    17    1
    21    17    18   ar
    22    18    19   ar
    23    19    20   ar
    24    20    23    1
    25    23    24   ar
    26    24    25   ar
    27    25    26   ar
    28    26    29    1
    29    29    30    1
    30    29    31    1
    31    29    32    1
    32    26    27   ar
    33    27    28   ar
    34    20    21   ar
    35    21    22   ar
    36    10    11    1
    37     4    12    1
    38    39    40    1
    39    40    41    1
    40    41    36    1
    41    12     1    1
    42    11     7    1
    43    22    17   ar
    44    28    23   ar
    45    33    34    1
@<TRIPOS>MOLECULE
*****
 41 45 0 0 0
SMALL
GASTEIGER

@<TRIPOS>ATOM
      1 C           4.5830    0.2574   34.9588 C.3     1  UNL1        0.0758
      2 C           4.4323    0.9878   36.2603 C.3     1  UNL1        0.0390
      3 C           3.4298    2.0859   36.0623 C.3     1  UNL1        0.0964
      4 N           2.9609    2.0341   34.6383 N.am    1  UNL1       -0.2626
      5 C           1.9558    2.9514   34.0072 C.2     1  UNL1        0.3073
      6 O           1.3227    4.0425   34.8187 O.2     1  UNL1       -0.2523
      7 N           1.5837    2.7774   32.5645 N.am    1  UNL1       -0.2623
      8 C           0.5998    3.6134   31.8008 C.3     1  UNL1        0.0968
      9 C           0.5382    3.0897   30.3966 C.3     1  UNL1        0.0431
     10 C           1.4840    1.9300   30.2924 C.3     1  UNL1        0.0972
     11 C           2.1302    1.7371   31.6323 C.3     1  UNL1        0.1147
     12 C           3.6736    0.9041   33.9564 C.3     1  UNL1        0.1106
     13 N           1.7389    1.1078   29.0640 N.am    1  UNL1       -0.2742
     14 C           0.9750   -0.1637   28.8409 C.3     1  UNL1        0.1152
     15 C           2.7575    1.5570   28.0588 C.2     1  UNL1        0.2491
     16 O           3.5214    2.8286   28.2820 O.2     1  UNL1       -0.2699
     17 C           3.0123    0.7347   26.8304 C.ar    1  UNL1        0.0536
     18 C           2.2642    1.0272   25.5636 C.ar    1  UNL1        0.0045
     19 C           2.5191    0.2048   24.3353 C.ar    1  UNL1        0.0001
     20 C           3.5220   -0.9099   24.3738 C.ar    1  UNL1        0.0000
     21 C           4.2701   -1.2024   25.6406 C.ar    1  UNL1        0.0001
     22 C           4.0152   -0.3800   26.8689 C.ar    1  UNL1        0.0045
     23 C           3.7768   -1.7323   23.1453 C.ar    1  UNL1       -0.0000
     24 C           4.6063   -2.9788   23.2360 C.ar    1  UNL1       -0.0001
     25 C           4.8610   -3.8010   22.0076 C.ar    1  UNL1        0.0039
     26 C           4.2864   -3.3768   20.6886 C.ar    1  UNL1        0.0714
     27 C           3.4570   -2.1303   20.5979 C.ar    1  UNL1        0.0039
     28 C           3.2022   -1.3081   21.8263 C.ar    1  UNL1       -0.0001
     29 C           4.5412   -4.1992   19.4603 C.3     1  UNL1        0.4186
     30 F           4.7960   -5.0215   18.2319 F       1  UNL1       -0.1659
     31 F           6.0019   -4.2502   19.7973 F       1  UNL1       -0.1659
     32 F           3.0805   -4.1482   19.1232 F       1  UNL1       -0.1659
     33 N           5.4847   -0.9140   34.7044 N.3     1  UNL1       -0.2982
     34 H           6.3325   -0.7567   35.2493 H       1  UNL1        0.1232
     35 C           7.2339   -2.1941   29.1096 C.3     1  UNL1        0.0000
     36 C           6.7966   -1.8741   30.5083 C.3     1  UNL1        0.0001
     37 C           7.3067   -0.6388   31.1895 C.3     1  UNL1        0.0014
     38 C           6.8694   -0.3188   32.5882 C.3     1  UNL1        0.0157
     39 C           5.9220   -1.2340   33.3057 C.3     1  UNL1        0.0540
     40 C           5.4119   -2.4692   32.6246 C.3     1  UNL1        0.0157
     41 C           5.8492   -2.7892   31.2259 C.3     1  UNL1        0.0014
@<TRIPOS>BOND
     1    35    36    1
     2    36    37    1
     3    37    38    1
     4    38    39    1
     5    39    33    1
     6     1    33    1
     7     1     2    1
     8     2     3    1
     9     3     4    1
    10     4     5   am
    11     5     6    2
    12     5     7   am
    13     7     8    1
    14     8     9    1
    15     9    10    1
    16    10    13    1
    17    13    14    1
    18    13    15   am
    19    15    16    2
    20    15    17    1
    21    17    18   ar
    22    18    19   ar
    23    19    20   ar
    24    20    23    1
    25    23    24   ar
    26    24    25   ar
    27    25    26   ar
    28    26    29    1
    29    29    30    1
    30    29    31    1
    31    29    32    1
    32    26    27   ar
    33    27    28   ar
    34    20    21   ar
    35    21    22   ar
    36    10    11    1
    37     4    12    1
    38    39    40    1
    39    40    41    1
    40    41    36    1
    41    12     1    1
    42    11     7    1
    43    22    17   ar
    44    28    23   ar
    45    33    34    1
@<TRIPOS>MOLECULE
*****
 41 45 0 0 0
SMALL
GASTEIGER

@<TRIPOS>ATOM
      1 C           2.6175    1.8468   33.7099 C.3     1  UNL1        0.0758
      2 C           2.3933    2.7563   34.8815 C.3     1  UNL1        0.0390
      3 C           1.6771    3.9789   34.3888 C.3     1  UNL1        0.0964
      4 N           1.4586    3.8248   32.9128 N.am    1  UNL1       -0.2626
      5 C           0.7785    4.8146   32.0142 C.2     1  UNL1        0.3073
      6 O           0.2443    6.0972   32.5794 O.2     1  UNL1       -0.2523
      7 N           0.6325    4.5218   30.5503 N.am    1  UNL1       -0.2623
      8 C          -0.0205    5.4112   29.5341 C.3     1  UNL1        0.0968
      9 C           0.0573    4.7274   28.2014 C.3     1  UNL1        0.0431
     10 C           0.7585    3.4153   28.3938 C.3     1  UNL1        0.0972
     11 C           1.1140    3.2883   29.8456 C.3     1  UNL1        0.1147
     12 C           2.0398    2.5072   32.4932 C.3     1  UNL1        0.1106
     13 N           1.0525    2.4073   27.3226 N.am    1  UNL1       -0.2742
     14 C           0.0240    1.3777   26.9591 C.3     1  UNL1        0.1152
     15 C           2.3749    2.4289   26.6150 C.2     1  UNL1        0.2491
     16 O           3.4034    3.4585   26.9786 O.2     1  UNL1       -0.2699
     17 C           2.6688    1.4209   25.5438 C.ar    1  UNL1        0.0536
     18 C           2.3142    1.7177   24.1169 C.ar    1  UNL1        0.0045
     19 C           2.6081    0.7097   23.0457 C.ar    1  UNL1        0.0001
     20 C           3.2567   -0.5952   23.4015 C.ar    1  UNL1        0.0000
     21 C           3.6114   -0.8921   24.8284 C.ar    1  UNL1        0.0001
     22 C           3.3174    0.1160   25.8995 C.ar    1  UNL1        0.0045
     23 C           3.5506   -1.6033   22.3302 C.ar    1  UNL1       -0.0000
     24 C           4.3126   -2.8516   22.6638 C.ar    1  UNL1       -0.0001
     25 C           4.6065   -3.8596   21.5925 C.ar    1  UNL1        0.0039
     26 C           4.1385   -3.6194   20.1878 C.ar    1  UNL1        0.0714
     27 C           3.3765   -2.3711   19.8543 C.ar    1  UNL1        0.0039
     28 C           3.0826   -1.3631   20.9255 C.ar    1  UNL1       -0.0001
     29 C           4.4324   -4.6274   19.1167 C.3     1  UNL1        0.4186
     30 F           4.7263   -5.6355   18.0455 F       1  UNL1       -0.1659
     31 F           5.4426   -3.6952   18.5164 F       1  UNL1       -0.1659
     32 F           3.4222   -5.5597   19.7168 F       1  UNL1       -0.1659
     33 N           3.2995    0.5114   33.7483 N.3     1  UNL1       -0.2982
     34 H           2.6448   -0.1413   34.1794 H       1  UNL1        0.1232
     35 C           8.5204   -0.1089   36.6393 C.3     1  UNL1        0.0000
     36 C           7.2152    0.0462   35.9165 C.3     1  UNL1        0.0001
     37 C           5.9246   -0.2166   36.6343 C.3     1  UNL1        0.0014
     38 C           4.6193   -0.0615   35.9116 C.3     1  UNL1        0.0157
     39 C           4.6047    0.3563   34.4711 C.3     1  UNL1        0.0540
     40 C           5.8953    0.6191   33.7533 C.3     1  UNL1        0.0157
     41 C           7.2005    0.4640   34.4760 C.3     1  UNL1        0.0014
@<TRIPOS>BOND
     1    35    36    1
     2    36    37    1
     3    37    38    1
     4    38    39    1
     5    39    33    1
     6     1    33    1
     7     1     2    1
     8     2     3    1
     9     3     4    1
    10     4     5   am
    11     5     6    2
    12     5     7   am
    13     7     8    1
    14     8     9    1
    15     9    10    1
    16    10    13    1
    17    13    14    1
    18    13    15   am
    19    15    16    2
    20    15    17    1
    21    17    18   ar
    22    18    19   ar
    23    19    20   ar
    24    20    23    1
    25    23    24   ar
    26    24    25   ar
    27    25    26   ar
    28    26    29    1
    29    29    30    1
    30    29    31    1
    31    29    32    1
    32    26    27   ar
    33    27    28   ar
    34    20    21   ar
    35    21    22   ar
    36    10    11    1
    37     4    12    1
    38    39    40    1
    39    40    41    1
    40    41    36    1
    41    12     1    1
    42    11     7    1
    43    22    17   ar
    44    28    23   ar
    45    33    34    1
@<TRIPOS>MOLECULE
*****
 41 45 0 0 0
SMALL
GASTEIGER

@<TRIPOS>ATOM
      1 C           1.6459    4.0050   33.6824 C.3     1  UNL1        0.0758
      2 C           1.0484    4.8592   34.7611 C.3     1  UNL1        0.0390
      3 C           1.6431    4.4348   36.0712 C.3     1  UNL1        0.0964
      4 N           2.6082    3.3183   35.8022 N.am    1  UNL1       -0.2626
      5 C           3.4276    2.5946   36.8291 C.2     1  UNL1        0.3073
      6 O           3.3199    2.9724   38.2767 O.2     1  UNL1       -0.2523
      7 N           4.3547    1.4931   36.4084 N.am    1  UNL1       -0.2623
      8 C           5.2322    0.6840   37.3171 C.3     1  UNL1        0.0968
      9 C           5.9870   -0.3019   36.4756 C.3     1  UNL1        0.0431
     10 C           5.5760   -0.1022   35.0467 C.3     1  UNL1        0.0972
     11 C           4.5672    1.0072   35.0053 C.3     1  UNL1        0.1147
     12 C           2.6099    3.0528   34.3259 C.3     1  UNL1        0.1106
     13 N           6.0846   -0.8760   33.8667 N.am    1  UNL1       -0.2742
     14 C           7.4476   -0.5868   33.3112 C.3     1  UNL1        0.1152
     15 C           5.2302   -1.9391   33.2421 C.2     1  UNL1        0.2491
     16 O           3.8672   -2.2282   33.7977 O.2     1  UNL1       -0.2699
     17 C           5.7389   -2.7128   32.0621 C.ar    1  UNL1        0.0536
     18 C           6.3770   -4.0552   32.2640 C.ar    1  UNL1        0.0045
     19 C           6.8856   -4.8289   31.0839 C.ar    1  UNL1        0.0001
     20 C           6.7561   -4.2603   29.7019 C.ar    1  UNL1        0.0000
     21 C           6.1180   -2.9179   29.5000 C.ar    1  UNL1        0.0001
     22 C           5.6094   -2.1442   30.6801 C.ar    1  UNL1        0.0045
     23 C           7.2648   -5.0341   28.5218 C.ar    1  UNL1       -0.0000
     24 C           8.0479   -6.2959   28.7333 C.ar    1  UNL1       -0.0001
     25 C           8.5565   -7.0696   27.5532 C.ar    1  UNL1        0.0039
     26 C           8.2821   -6.5815   26.1616 C.ar    1  UNL1        0.0714
     27 C           7.4990   -5.3197   25.9501 C.ar    1  UNL1        0.0039
     28 C           6.9904   -4.5460   27.1302 C.ar    1  UNL1       -0.0001
     29 C           8.7907   -7.3553   24.9816 C.3     1  UNL1        0.4186
     30 F           9.2994   -8.1291   23.8015 F       1  UNL1       -0.1659
     31 F           9.5358   -8.2734   25.9046 F       1  UNL1       -0.1659
     32 F           8.0457   -6.4373   24.0585 F       1  UNL1       -0.1659
     33 N           1.3341    4.0885   32.2176 N.3     1  UNL1       -0.2982
     34 H           0.3245    4.2103   32.1379 H       1  UNL1        0.1232
     35 C           2.8262   -0.4359   28.5702 C.3     1  UNL1        0.0000
     36 C           2.4531    0.6952   29.4821 C.3     1  UNL1        0.0001
     37 C           1.0307    0.8610   29.9282 C.3     1  UNL1        0.0014
     38 C           0.6577    1.9922   30.8400 C.3     1  UNL1        0.0157
     39 C           1.7071    2.9574   31.3057 C.3     1  UNL1        0.0540
     40 C           3.1296    2.7915   30.8596 C.3     1  UNL1        0.0157
     41 C           3.5026    1.6604   29.9478 C.3     1  UNL1        0.0014
@<TRIPOS>BOND
     1    35    36    1
     2    36    37    1
     3    37    38    1
     4    38    39    1
     5    39    33    1
     6     1    33    1
     7     1     2    1
     8     2     3    1
     9     3     4    1
    10     4     5   am
    11     5     6    2
    12     5     7   am
    13     7     8    1
    14     8     9    1
    15     9    10    1
    16    10    13    1
    17    13    14    1
    18    13    15   am
    19    15    16    2
    20    15    17    1
    21    17    18   ar
    22    18    19   ar
    23    19    20   ar
    24    20    23    1
    25    23    24   ar
    26    24    25   ar
    27    25    26   ar
    28    26    29    1
    29    29    30    1
    30    29    31    1
    31    29    32    1
    32    26    27   ar
    33    27    28   ar
    34    20    21   ar
    35    21    22   ar
    36    10    11    1
    37     4    12    1
    38    39    40    1
    39    40    41    1
    40    41    36    1
    41    12     1    1
    42    11     7    1
    43    22    17   ar
    44    28    23   ar
    45    33    34    1
@<TRIPOS>MOLECULE
*****
 41 45 0 0 0
SMALL
GASTEIGER

@<TRIPOS>ATOM
      1 C           6.5798   -0.1019   33.6063 C.3     1  UNL1        0.0758
      2 C           6.4884    0.0117   35.0993 C.3     1  UNL1        0.0390
      3 C           5.1892    0.6825   35.4344 C.3     1  UNL1        0.0964
      4 N           4.4777    0.9835   34.1486 N.am    1  UNL1       -0.2626
      5 C           3.1415    1.6519   34.0159 C.2     1  UNL1        0.3073
      6 O           2.3941    2.0844   35.2425 O.2     1  UNL1       -0.2523
      7 N           2.5525    1.8877   32.6567 N.am    1  UNL1       -0.2623
      8 C           1.2330    2.5406   32.3687 C.3     1  UNL1        0.0968
      9 C           1.0446    2.5685   30.8809 C.3     1  UNL1        0.0431
     10 C           2.2477    1.9328   30.2493 C.3     1  UNL1        0.0972
     11 C           3.1796    1.5121   31.3469 C.3     1  UNL1        0.1147
     12 C           5.3371    0.4988   33.0188 C.3     1  UNL1        0.1106
     13 N           2.4782    1.7501   28.7784 N.am    1  UNL1       -0.2742
     14 C           3.2743    2.7647   28.0124 C.3     1  UNL1        0.1152
     15 C           1.9127    0.5528   28.0737 C.2     1  UNL1        0.2491
     16 O           1.1167   -0.4618   28.8398 O.2     1  UNL1       -0.2699
     17 C           2.1433    0.3701   26.6028 C.ar    1  UNL1        0.0536
     18 C           3.2658   -0.5012   26.1221 C.ar    1  UNL1        0.0045
     19 C           3.4963   -0.6838   24.6513 C.ar    1  UNL1        0.0001
     20 C           2.6045    0.0048   23.6611 C.ar    1  UNL1        0.0000
     21 C           1.4821    0.8761   24.1418 C.ar    1  UNL1        0.0001
     22 C           1.2515    1.0587   25.6126 C.ar    1  UNL1        0.0045
     23 C           2.8351   -0.1779   22.1902 C.ar    1  UNL1       -0.0000
     24 C           4.2221   -0.4200   21.6728 C.ar    1  UNL1       -0.0001
     25 C           4.4526   -0.6027   20.2020 C.ar    1  UNL1        0.0039
     26 C           3.2962   -0.5432   19.2485 C.ar    1  UNL1        0.0714
     27 C           1.9092   -0.3011   19.7658 C.ar    1  UNL1        0.0039
     28 C           1.6787   -0.1184   21.2366 C.ar    1  UNL1       -0.0001
     29 C           3.5268   -0.7259   17.7776 C.3     1  UNL1        0.4186
     30 F           3.7574   -0.9086   16.3067 F       1  UNL1       -0.1659
     31 F           2.9326    0.6264   17.5164 F       1  UNL1       -0.1659
     32 F           4.1210   -2.0782   18.0387 F       1  UNL1       -0.1659
     33 N           7.7146   -0.7093   32.8362 N.3     1  UNL1       -0.2982
     34 H           8.1242    0.0385   32.2764 H       1  UNL1        0.1232
     35 C           6.6940   -5.3010   29.1112 C.3     1  UNL1        0.0000
     36 C           6.9492   -4.1530   30.0425 C.3     1  UNL1        0.0001
     37 C           7.5128   -2.8681   29.5122 C.3     1  UNL1        0.0014
     38 C           7.7679   -1.7202   30.4435 C.3     1  UNL1        0.0157
     39 C           7.4594   -1.8572   31.9049 C.3     1  UNL1        0.0540
     40 C           6.8958   -3.1422   32.4352 C.3     1  UNL1        0.0157
     41 C           6.6406   -4.2901   31.5039 C.3     1  UNL1        0.0014
@<TRIPOS>BOND
     1    35    36    1
     2    36    37    1
     3    37    38    1
     4    38    39    1
     5    39    33    1
     6     1    33    1
     7     1     2    1
     8     2     3    1
     9     3     4    1
    10     4     5   am
    11     5     6    2
    12     5     7   am
    13     7     8    1
    14     8     9    1
    15     9    10    1
    16    10    13    1
    17    13    14    1
    18    13    15   am
    19    15    16    2
    20    15    17    1
    21    17    18   ar
    22    18    19   ar
    23    19    20   ar
    24    20    23    1
    25    23    24   ar
    26    24    25   ar
    27    25    26   ar
    28    26    29    1
    29    29    30    1
    30    29    31    1
    31    29    32    1
    32    26    27   ar
    33    27    28   ar
    34    20    21   ar
    35    21    22   ar
    36    10    11    1
    37     4    12    1
    38    39    40    1
    39    40    41    1
    40    41    36    1
    41    12     1    1
    42    11     7    1
    43    22    17   ar
    44    28    23   ar
    45    33    34    1
@<TRIPOS>MOLECULE
*****
 41 45 0 0 0
SMALL
GASTEIGER

@<TRIPOS>ATOM
      1 C           1.3779    2.4280   19.5809 C.3     1  UNL1        0.0758
      2 C           0.8208    2.7132   18.2176 C.3     1  UNL1        0.0390
      3 C          -0.5818    3.2175   18.3862 C.3     1  UNL1        0.0964
      4 N          -0.8916    3.2440   19.8537 N.am    1  UNL1       -0.2626
      5 C          -2.1853    3.6817   20.4739 C.2     1  UNL1        0.3073
      6 O          -3.3146    4.1475   19.6035 O.2     1  UNL1       -0.2523
      7 N          -2.3497    3.6535   21.9646 N.am    1  UNL1       -0.2623
      8 C          -3.5782    4.0590   22.7239 C.3     1  UNL1        0.0968
      9 C          -3.3024    3.8710   24.1863 C.3     1  UNL1        0.0431
     10 C          -1.9033    3.3493   24.3308 C.3     1  UNL1        0.0972
     11 C          -1.3146    3.2150   22.9576 C.3     1  UNL1        0.1147
     12 C           0.3195    2.7561   20.5920 C.3     1  UNL1        0.1106
     13 N          -1.2142    3.0200   25.6217 N.am    1  UNL1       -0.2742
     14 C          -1.4611    3.8605   26.8393 C.3     1  UNL1        0.1152
     15 C          -0.2781    1.8502   25.6951 C.2     1  UNL1        0.2491
     16 O          -0.0313    1.0097   24.4774 O.2     1  UNL1       -0.2699
     17 C           0.4110    1.5209   26.9861 C.ar    1  UNL1        0.0536
     18 C          -0.2601    0.6292   27.9883 C.ar    1  UNL1        0.0045
     19 C           0.4291    0.2999   29.2792 C.ar    1  UNL1        0.0001
     20 C           1.7893    0.8624   29.5680 C.ar    1  UNL1        0.0000
     21 C           2.4604    1.7541   28.5658 C.ar    1  UNL1        0.0001
     22 C           1.7712    2.0834   27.2748 C.ar    1  UNL1        0.0045
     23 C           2.4785    0.5331   30.8590 C.ar    1  UNL1       -0.0000
     24 C           3.2224   -0.7614   31.0031 C.ar    1  UNL1       -0.0001
     25 C           3.9115   -1.0906   32.2941 C.ar    1  UNL1        0.0039
     26 C           3.8568   -0.1254   33.4410 C.ar    1  UNL1        0.0714
     27 C           3.1128    1.1691   33.2969 C.ar    1  UNL1        0.0039
     28 C           2.4237    1.4983   32.0059 C.ar    1  UNL1       -0.0001
     29 C           4.5459   -0.4547   34.7320 C.3     1  UNL1        0.4186
     30 F           5.2351   -0.7840   36.0229 F       1  UNL1       -0.1659
     31 F           4.2495   -1.9096   34.5192 F       1  UNL1       -0.1659
     32 F           4.8423    1.0002   34.9448 F       1  UNL1       -0.1659
     33 N           2.7519    1.9063   19.8804 N.3     1  UNL1       -0.2982
     34 H           3.4021    2.4420   19.3053 H       1  UNL1        0.1232
     35 C           4.0209   -3.8897   18.9879 C.3     1  UNL1        0.0000
     36 C           3.7037   -2.4407   19.2110 C.3     1  UNL1        0.0001
     37 C           3.9365   -1.4444   18.1142 C.3     1  UNL1        0.0014
     38 C           3.6193    0.0046   18.3373 C.3     1  UNL1        0.0157
     39 C           3.0692    0.4573   19.6572 C.3     1  UNL1        0.0540
     40 C           2.8363   -0.5390   20.7541 C.3     1  UNL1        0.0157
     41 C           3.1535   -1.9880   20.5310 C.3     1  UNL1        0.0014
@<TRIPOS>BOND
     1    35    36    1
     2    36    37    1
     3    37    38    1
     4    38    39    1
     5    39    33    1
     6     1    33    1
     7     1     2    1
     8     2     3    1
     9     3     4    1
    10     4     5   am
    11     5     6    2
    12     5     7   am
    13     7     8    1
    14     8     9    1
    15     9    10    1
    16    10    13    1
    17    13    14    1
    18    13    15   am
    19    15    16    2
    20    15    17    1
    21    17    18   ar
    22    18    19   ar
    23    19    20   ar
    24    20    23    1
    25    23    24   ar
    26    24    25   ar
    27    25    26   ar
    28    26    29    1
    29    29    30    1
    30    29    31    1
    31    29    32    1
    32    26    27   ar
    33    27    28   ar
    34    20    21   ar
    35    21    22   ar
    36    10    11    1
    37     4    12    1
    38    39    40    1
    39    40    41    1
    40    41    36    1
    41    12     1    1
    42    11     7    1
    43    22    17   ar
    44    28    23   ar
    45    33    34    1
@<TRIPOS>MOLECULE
*****
 41 45 0 0 0
SMALL
GASTEIGER

@<TRIPOS>ATOM
      1 C           4.5196    1.3060   36.9672 C.3     1  UNL1        0.0758
      2 C           4.1660    1.8393   38.3239 C.3     1  UNL1        0.0390
      3 C           3.1240    2.9038   38.1464 C.3     1  UNL1        0.0964
      4 N           2.8338    3.0284   36.6800 N.am    1  UNL1       -0.2626
      5 C           1.8532    3.9743   36.0526 C.2     1  UNL1        0.3073
      6 O           1.0567    4.9091   36.9138 O.2     1  UNL1       -0.2523
      7 N           1.6692    3.9855   34.5640 N.am    1  UNL1       -0.2623
      8 C           0.7309    4.8705   33.7982 C.3     1  UNL1        0.0968
      9 C           0.8729    4.5456   32.3408 C.3     1  UNL1        0.0431
     10 C           1.8990    3.4597   32.2057 C.3     1  UNL1        0.0972
     11 C           2.3910    3.1135   33.5798 C.3     1  UNL1        0.1147
     12 C           3.6962    2.0410   35.9512 C.3     1  UNL1        0.1106
     13 N           2.3531    2.8305   30.9220 N.am    1  UNL1       -0.2742
     14 C           3.6410    3.2657   30.2881 C.3     1  UNL1        0.1152
     15 C           1.5194    1.7662   30.2723 C.2     1  UNL1        0.2491
     16 O           0.2314    1.3311   30.9063 O.2     1  UNL1       -0.2699
     17 C           1.9736    1.1371   28.9886 C.ar    1  UNL1        0.0536
     18 C           1.5962    1.7560   27.6754 C.ar    1  UNL1        0.0045
     19 C           2.0505    1.1268   26.3918 C.ar    1  UNL1        0.0001
     20 C           2.8820   -0.1212   26.4213 C.ar    1  UNL1        0.0000
     21 C           3.2593   -0.7401   27.7345 C.ar    1  UNL1        0.0001
     22 C           2.8051   -0.1110   29.0182 C.ar    1  UNL1        0.0045
     23 C           3.3363   -0.7504   25.1375 C.ar    1  UNL1       -0.0000
     24 C           2.7304   -0.3185   23.8351 C.ar    1  UNL1       -0.0001
     25 C           3.1846   -0.9477   22.5515 C.ar    1  UNL1        0.0039
     26 C           4.2447   -2.0087   22.5702 C.ar    1  UNL1        0.0714
     27 C           4.8506   -2.4406   23.8727 C.ar    1  UNL1        0.0039
     28 C           4.3964   -1.8114   25.1563 C.ar    1  UNL1       -0.0001
     29 C           4.6989   -2.6378   21.2866 C.3     1  UNL1        0.4186
     30 F           5.1531   -3.2670   20.0029 F       1  UNL1       -0.1659
     31 F           6.0041   -3.0049   21.9282 F       1  UNL1       -0.1659
     32 F           3.3938   -2.2708   20.6449 F       1  UNL1       -0.1659
     33 N           5.5207    0.2273   36.6773 N.3     1  UNL1       -0.2982
     34 H           6.4414    0.6194   36.8747 H       1  UNL1        0.1232
     35 C           5.8111   -2.2027   31.1991 C.3     1  UNL1        0.0000
     36 C           5.7385   -1.5952   32.5687 C.3     1  UNL1        0.0001
     37 C           4.5336   -1.8303   33.4305 C.3     1  UNL1        0.0014
     38 C           4.4610   -1.2228   34.8001 C.3     1  UNL1        0.0157
     39 C           5.5933   -0.3802   35.3078 C.3     1  UNL1        0.0540
     40 C           6.7982   -0.1451   34.4459 C.3     1  UNL1        0.0157
     41 C           6.8708   -0.7526   33.0763 C.3     1  UNL1        0.0014
@<TRIPOS>BOND
     1    35    36    1
     2    36    37    1
     3    37    38    1
     4    38    39    1
     5    39    33    1
     6     1    33    1
     7     1     2    1
     8     2     3    1
     9     3     4    1
    10     4     5   am
    11     5     6    2
    12     5     7   am
    13     7     8    1
    14     8     9    1
    15     9    10    1
    16    10    13    1
    17    13    14    1
    18    13    15   am
    19    15    16    2
    20    15    17    1
    21    17    18   ar
    22    18    19   ar
    23    19    20   ar
    24    20    23    1
    25    23    24   ar
    26    24    25   ar
    27    25    26   ar
    28    26    29    1
    29    29    30    1
    30    29    31    1
    31    29    32    1
    32    26    27   ar
    33    27    28   ar
    34    20    21   ar
    35    21    22   ar
    36    10    11    1
    37     4    12    1
    38    39    40    1
    39    40    41    1
    40    41    36    1
    41    12     1    1
    42    11     7    1
    43    22    17   ar
    44    28    23   ar
    45    33    34    1
@<TRIPOS>MOLECULE
*****
 41 45 0 0 0
SMALL
GASTEIGER

@<TRIPOS>ATOM
      1 C           5.3508   -1.9733   19.4615 C.3     1  UNL1        0.0758
      2 C           6.6077   -2.7034   19.0908 C.3     1  UNL1        0.0390
      3 C           7.5914   -2.5306   20.2099 C.3     1  UNL1        0.0964
      4 N           6.9426   -1.6938   21.2724 N.am    1  UNL1       -0.2626
      5 C           7.5685   -1.2750   22.5695 C.2     1  UNL1        0.3073
      6 O           8.9699   -1.6978   22.8971 O.2     1  UNL1       -0.2523
      7 N           6.7931   -0.4334   23.5392 N.am    1  UNL1       -0.2623
      8 C           7.2843    0.0595   24.8682 C.3     1  UNL1        0.0968
      9 C           6.1851    0.8607   25.5005 C.3     1  UNL1        0.0431
     10 C           5.0145    0.8630   24.5625 C.3     1  UNL1        0.0972
     11 C           5.3903    0.0632   23.3503 C.3     1  UNL1        0.1147
     12 C           5.5579   -1.3494   20.8099 C.3     1  UNL1        0.1106
     13 N           3.6992    1.5453   24.7957 N.am    1  UNL1       -0.2742
     14 C           3.6645    2.9314   25.3678 C.3     1  UNL1        0.1152
     15 C           2.4187    0.8415   24.4567 C.2     1  UNL1        0.2491
     16 O           2.4535   -0.5447   23.8845 O.2     1  UNL1       -0.2699
     17 C           1.1034    1.5239   24.6900 C.ar    1  UNL1        0.0536
     18 C           0.4103    1.3844   26.0129 C.ar    1  UNL1        0.0045
     19 C          -0.9050    2.0668   26.2460 C.ar    1  UNL1        0.0001
     20 C          -1.5271    2.8886   25.1563 C.ar    1  UNL1        0.0000
     21 C          -0.8340    3.0282   23.8334 C.ar    1  UNL1        0.0001
     22 C           0.4813    2.3458   23.6003 C.ar    1  UNL1        0.0045
     23 C          -2.8425    3.5711   25.3896 C.ar    1  UNL1       -0.0000
     24 C          -3.1281    4.2169   26.7130 C.ar    1  UNL1       -0.0001
     25 C          -4.4433    4.8992   26.9461 C.ar    1  UNL1        0.0039
     26 C          -5.4730    4.9358   25.8559 C.ar    1  UNL1        0.0714
     27 C          -5.1874    4.2900   24.5325 C.ar    1  UNL1        0.0039
     28 C          -3.8721    3.6076   24.2994 C.ar    1  UNL1       -0.0001
     29 C          -6.7882    5.6182   26.0892 C.3     1  UNL1        0.4186
     30 F          -8.1035    6.3006   26.3224 F       1  UNL1       -0.1659
     31 F          -6.4339    5.8075   27.5343 F       1  UNL1       -0.1659
     32 F          -7.1427    5.4289   24.6440 F       1  UNL1       -0.1659
     33 N           4.1057   -1.8830   18.6300 N.3     1  UNL1       -0.2982
     34 H           4.4027   -1.6742   17.6768 H       1  UNL1        0.1232
     35 C          -0.1538    2.1042   20.0295 C.3     1  UNL1        0.0000
     36 C           0.9111    1.1074   19.6797 C.3     1  UNL1        0.0001
     37 C           1.8707    1.3958   18.5635 C.3     1  UNL1        0.0014
     38 C           2.9356    0.3989   18.2136 C.3     1  UNL1        0.0157
     39 C           3.0408   -0.8862   18.9799 C.3     1  UNL1        0.0540
     40 C           2.0812   -1.1745   20.0961 C.3     1  UNL1        0.0157
     41 C           1.0163   -0.1777   20.4460 C.3     1  UNL1        0.0014
@<TRIPOS>BOND
     1    35    36    1
     2    36    37    1
     3    37    38    1
     4    38    39    1
     5    39    33    1
     6     1    33    1
     7     1     2    1
     8     2     3    1
     9     3     4    1
    10     4     5   am
    11     5     6    2
    12     5     7   am
    13     7     8    1
    14     8     9    1
    15     9    10    1
    16    10    13    1
    17    13    14    1
    18    13    15   am
    19    15    16    2
    20    15    17    1
    21    17    18   ar
    22    18    19   ar
    23    19    20   ar
    24    20    23    1
    25    23    24   ar
    26    24    25   ar
    27    25    26   ar
    28    26    29    1
    29    29    30    1
    30    29    31    1
    31    29    32    1
    32    26    27   ar
    33    27    28   ar
    34    20    21   ar
    35    21    22   ar
    36    10    11    1
    37     4    12    1
    38    39    40    1
    39    40    41    1
    40    41    36    1
    41    12     1    1
    42    11     7    1
    43    22    17   ar
    44    28    23   ar
    45    33    34    1
@<TRIPOS>MOLECULE
*****
 41 45 0 0 0
SMALL
GASTEIGER

@<TRIPOS>ATOM
      1 C           6.7183   -4.1777   23.2311 C.3     1  UNL1        0.0758
      2 C           8.0696   -4.8268   23.2829 C.3     1  UNL1        0.0390
      3 C           8.7259   -4.4289   24.5717 C.3     1  UNL1        0.0964
      4 N           7.7801   -3.5339   25.3165 N.am    1  UNL1       -0.2626
      5 C           8.0311   -2.9046   26.6547 C.2     1  UNL1        0.3073
      6 O           9.3268   -3.1521   27.3687 O.2     1  UNL1       -0.2523
      7 N           6.9863   -2.0278   27.2789 N.am    1  UNL1       -0.2623
      8 C           7.0947   -1.3341   28.6046 C.3     1  UNL1        0.0968
      9 C           5.8252   -0.5684   28.8321 C.3     1  UNL1        0.0431
     10 C           4.9321   -0.7888   27.6472 C.3     1  UNL1        0.0972
     11 C           5.6498   -1.6908   26.6873 C.3     1  UNL1        0.1147
     12 C           6.5394   -3.3786   24.4879 C.3     1  UNL1        0.1106
     13 N           3.5620   -0.2090   27.4558 N.am    1  UNL1       -0.2742
     14 C           2.4245   -0.6726   28.3168 C.3     1  UNL1        0.1152
     15 C           3.3293    0.8343   26.4036 C.2     1  UNL1        0.2491
     16 O           4.4668    1.2979   25.5426 O.2     1  UNL1       -0.2699
     17 C           1.9591    1.4140   26.2123 C.ar    1  UNL1        0.0536
     18 C           1.3836    2.3356   27.2465 C.ar    1  UNL1        0.0045
     19 C           0.0135    2.9153   27.0551 C.ar    1  UNL1        0.0001
     20 C          -0.7811    2.5734   25.8296 C.ar    1  UNL1        0.0000
     21 C          -0.2056    1.6519   24.7955 C.ar    1  UNL1        0.0001
     22 C           1.1645    1.0722   24.9868 C.ar    1  UNL1        0.0045
     23 C          -2.1514    3.1532   25.6383 C.ar    1  UNL1       -0.0000
     24 C          -2.9512    3.5959   26.8276 C.ar    1  UNL1       -0.0001
     25 C          -4.3213    4.1756   26.6362 C.ar    1  UNL1        0.0039
     26 C          -4.8916    4.3126   25.2557 C.ar    1  UNL1        0.0714
     27 C          -4.0918    3.8699   24.0664 C.ar    1  UNL1        0.0039
     28 C          -2.7217    3.2902   24.2578 C.ar    1  UNL1       -0.0001
     29 C          -6.2618    4.8923   25.0644 C.3     1  UNL1        0.4186
     30 F          -7.6319    5.4721   24.8731 F       1  UNL1       -0.1659
     31 F          -6.3733    4.1928   23.7422 F       1  UNL1       -0.1659
     32 F          -6.1503    5.5919   26.3866 F       1  UNL1       -0.1659
     33 N           5.7210   -4.3053   22.1180 N.3     1  UNL1       -0.2982
     34 H           6.2545   -4.4249   21.2569 H       1  UNL1        0.1232
     35 C           1.7703    0.0967   21.1104 C.3     1  UNL1        0.0000
     36 C           2.7580   -1.0038   21.3623 C.3     1  UNL1        0.0001
     37 C           3.2859   -1.2353   22.7470 C.3     1  UNL1        0.0014
     38 C           4.2736   -2.3358   22.9989 C.3     1  UNL1        0.0157
     39 C           4.7333   -3.2048   21.8661 C.3     1  UNL1        0.0540
     40 C           4.2054   -2.9733   20.4813 C.3     1  UNL1        0.0157
     41 C           3.2177   -1.8728   20.2294 C.3     1  UNL1        0.0014
@<TRIPOS>BOND
     1    35    36    1
     2    36    37    1
     3    37    38    1
     4    38    39    1
     5    39    33    1
     6     1    33    1
     7     1     2    1
     8     2     3    1
     9     3     4    1
    10     4     5   am
    11     5     6    2
    12     5     7   am
    13     7     8    1
    14     8     9    1
    15     9    10    1
    16    10    13    1
    17    13    14    1
    18    13    15   am
    19    15    16    2
    20    15    17    1
    21    17    18   ar
    22    18    19   ar
    23    19    20   ar
    24    20    23    1
    25    23    24   ar
    26    24    25   ar
    27    25    26   ar
    28    26    29    1
    29    29    30    1
    30    29    31    1
    31    29    32    1
    32    26    27   ar
    33    27    28   ar
    34    20    21   ar
    35    21    22   ar
    36    10    11    1
    37     4    12    1
    38    39    40    1
    39    40    41    1
    40    41    36    1
    41    12     1    1
    42    11     7    1
    43    22    17   ar
    44    28    23   ar
    45    33    34    1
