@<TRIPOS>MOLECULE
*****
 38 43 0 0 0
SMALL
GASTEIGER

@<TRIPOS>ATOM
      1 C           9.1362    0.1431   20.0290 C.3     1  UNL1        0.0666
      2 S           8.7470    0.4131   18.6058 S.3     1  UNL1       -0.0756
      3 C           6.2955    2.0291   20.0301 C.3     1  UNL1        0.1340
      4 N           6.1769    1.1043   18.8550 N.ar    1  UNL1       -0.2884
      5 C           7.3037    0.3615   18.2004 C.ar    1  UNL1        0.1932
      6 N           6.7339   -0.4419   17.0690 N.ar    1  UNL1       -0.1221
      7 N           5.2549   -0.1957   17.0245 N.ar    1  UNL1       -0.1282
      8 C           4.9106    0.7600   18.1283 C.ar    1  UNL1        0.1668
      9 C           3.5406    1.2799   18.4490 C.ar    1  UNL1        0.0360
     10 C           3.3835    2.5927   19.1574 C.ar    1  UNL1        0.0032
     11 C           2.0136    3.1127   19.4782 C.ar    1  UNL1        0.0047
     12 C           0.8007    2.3197   19.0904 C.ar    1  UNL1        0.0536
     13 C           0.9578    1.0068   18.3821 C.ar    1  UNL1        0.0047
     14 C           2.3279    0.4870   18.0614 C.ar    1  UNL1        0.0032
     15 C          -0.5692    2.8396   19.4112 C.ar    1  UNL1        0.2299
     16 N          -1.3414    3.8440   18.6081 N.ar    1  UNL1       -0.2065
     17 C          -2.6569    4.0716   19.2918 C.ar    1  UNL1        0.1427
     18 C          -2.6979    3.2079   20.5176 C.ar    1  UNL1        0.2021
     19 O          -1.4075    2.4464   20.5913 O.2     1  UNL1       -0.4314
     20 C           9.3610   -1.2663   20.4906 C.3     1  UNL1        0.0294
     21 C           8.2952   -1.9800   21.2682 C.3     1  UNL1        0.0730
     22 N           6.9702   -2.2737   20.6293 N.3     1  UNL1       -0.2726
     23 C           6.7501   -3.0935   19.3926 C.3     1  UNL1        0.0721
     24 C           5.2765   -3.1255   19.1140 C.3     1  UNL1        0.0190
     25 C           4.5860   -2.3255   20.1784 C.3     1  UNL1        0.0201
     26 C           3.1961   -2.5339   19.6544 C.3     1  UNL1        0.0061
     27 C           3.4162   -1.7141   20.8910 C.3     1  UNL1        0.0237
     28 C           5.6327   -1.7990   21.1150 C.3     1  UNL1        0.0724
     29 C           2.8679   -0.8877   22.0164 C.ar    1  UNL1       -0.0225
     30 C           1.8258    0.1557   21.7422 C.ar    1  UNL1       -0.0043
     31 C           1.2775    0.9821   22.8676 C.ar    1  UNL1        0.0035
     32 C           1.7714    0.7650   24.2672 C.ar    1  UNL1        0.0714
     33 C           2.8136   -0.2785   24.5414 C.ar    1  UNL1        0.0035
     34 C           3.3618   -1.1048   23.4160 C.ar    1  UNL1       -0.0043
     35 C           1.2232    1.5913   25.3926 C.3     1  UNL1        0.4186
     36 F           0.6748    2.4177   26.5181 F       1  UNL1       -0.1659
     37 F           2.5990    2.1166   25.6772 F       1  UNL1       -0.1659
     38 F          -0.1527    1.0661   25.1080 F       1  UNL1       -0.1659
@<TRIPOS>BOND
     1     3     4    1
     2     4     5   ar
     3     5     2    1
     4     2     1    1
     5     1    20    1
     6    20    21    1
     7    21    22    1
     8    22    23    1
     9    23    24    1
    10    25    24    1
    11    25    26    1
    12    26    27    1
    13    27    29    1
    14    29    30   ar
    15    30    31   ar
    16    31    32   ar
    17    32    35    1
    18    35    36    1
    19    35    37    1
    20    35    38    1
    21    32    33   ar
    22    33    34   ar
    23    25    28    1
    24     5     6   ar
    25     6     7   ar
    26     7     8   ar
    27     8     9    1
    28     9    10   ar
    29    10    11   ar
    30    11    12   ar
    31    12    15    1
    32    15    16   ar
    33    16    17   ar
    34    17    18   ar
    35    18    19   ar
    36    12    13   ar
    37    13    14   ar
    38     8     4   ar
    39    14     9   ar
    40    28    22    1
    41    19    15   ar
    42    27    25    1
    43    34    29   ar
@<TRIPOS>MOLECULE
*****
 38 43 0 0 0
SMALL
GASTEIGER

@<TRIPOS>ATOM
      1 C          -4.1235    4.4067   20.0739 C.3     1  UNL1        0.0666
      2 S          -2.7407    4.9507   19.8694 S.3     1  UNL1       -0.0756
      3 C          -0.9998    2.5559   21.2419 C.3     1  UNL1        0.1340
      4 N          -0.8992    3.0139   19.8171 N.ar    1  UNL1       -0.2884
      5 C          -1.6994    4.1147   19.1862 C.ar    1  UNL1        0.1932
      6 N          -1.2754    4.2328   17.7522 N.ar    1  UNL1       -0.1221
      7 N          -0.2132    3.2050   17.4968 N.ar    1  UNL1       -0.1282
      8 C           0.0194    2.4516   18.7729 C.ar    1  UNL1        0.1668
      9 C           0.9985    1.3326   18.9703 C.ar    1  UNL1        0.0360
     10 C           0.6720    0.2064   19.9058 C.ar    1  UNL1        0.0032
     11 C           1.6511   -0.9126   20.1031 C.ar    1  UNL1        0.0047
     12 C           2.9569   -0.9055   19.3648 C.ar    1  UNL1        0.0536
     13 C           3.2835    0.2206   18.4293 C.ar    1  UNL1        0.0047
     14 C           2.3043    1.3397   18.2321 C.ar    1  UNL1        0.0032
     15 C           3.9361   -2.0246   19.5622 C.ar    1  UNL1        0.2299
     16 N           5.2021   -1.9572   20.3638 N.ar    1  UNL1       -0.2065
     17 C           5.8696   -3.2984   20.2896 C.ar    1  UNL1        0.1427
     18 C           5.0161   -4.1948   19.4421 C.ar    1  UNL1        0.2021
     19 O           3.8211   -3.4074   18.9925 O.2     1  UNL1       -0.4314
     20 C          -4.4463    3.6246   21.3125 C.3     1  UNL1        0.0294
     21 C          -4.9841    4.3267   22.5240 C.3     1  UNL1        0.0730
     22 N          -4.3523    4.0986   23.8652 N.3     1  UNL1       -0.2726
     23 C          -5.0098    4.3097   25.1969 C.3     1  UNL1        0.0721
     24 C          -4.0159    3.9610   26.2649 C.3     1  UNL1        0.0190
     25 C          -2.7442    3.5344   25.5933 C.3     1  UNL1        0.0201
     26 C          -1.9830    3.2630   26.8569 C.3     1  UNL1        0.0061
     27 C          -1.3255    3.0520   25.5253 C.3     1  UNL1        0.0237
     28 C          -2.9522    3.6195   24.1102 C.3     1  UNL1        0.0724
     29 C          -0.1269    2.6517   24.7172 C.ar    1  UNL1       -0.0225
     30 C           0.1610    1.2003   24.4712 C.ar    1  UNL1       -0.0043
     31 C           1.3596    0.7999   23.6631 C.ar    1  UNL1        0.0035
     32 C           2.2703    1.8510   23.1010 C.ar    1  UNL1        0.0714
     33 C           1.9823    3.3024   23.3471 C.ar    1  UNL1        0.0035
     34 C           0.7837    3.7028   24.1551 C.ar    1  UNL1       -0.0043
     35 C           3.4689    1.4507   22.2930 C.3     1  UNL1        0.4186
     36 F           4.6676    1.0503   21.4848 F       1  UNL1       -0.1659
     37 F           3.8150    0.4137   23.3200 F       1  UNL1       -0.1659
     38 F           3.1228    2.4876   21.2659 F       1  UNL1       -0.1659
@<TRIPOS>BOND
     1     3     4    1
     2     4     5   ar
     3     5     2    1
     4     2     1    1
     5     1    20    1
     6    20    21    1
     7    21    22    1
     8    22    23    1
     9    23    24    1
    10    25    24    1
    11    25    26    1
    12    26    27    1
    13    27    29    1
    14    29    30   ar
    15    30    31   ar
    16    31    32   ar
    17    32    35    1
    18    35    36    1
    19    35    37    1
    20    35    38    1
    21    32    33   ar
    22    33    34   ar
    23    25    28    1
    24     5     6   ar
    25     6     7   ar
    26     7     8   ar
    27     8     9    1
    28     9    10   ar
    29    10    11   ar
    30    11    12   ar
    31    12    15    1
    32    15    16   ar
    33    16    17   ar
    34    17    18   ar
    35    18    19   ar
    36    12    13   ar
    37    13    14   ar
    38     8     4   ar
    39    14     9   ar
    40    28    22    1
    41    19    15   ar
    42    27    25    1
    43    34    29   ar
@<TRIPOS>MOLECULE
*****
 38 43 0 0 0
SMALL
GASTEIGER

@<TRIPOS>ATOM
      1 C          -5.1623    4.2491   19.9160 C.3     1  UNL1        0.0666
      2 S          -3.8398    4.5429   19.2721 S.3     1  UNL1       -0.0756
      3 C          -0.9872    4.5412   17.6871 C.3     1  UNL1        0.1340
      4 N          -1.3233    3.7227   18.8983 N.ar    1  UNL1       -0.2884
      5 C          -2.6345    3.7235   19.6268 C.ar    1  UNL1        0.1932
      6 N          -2.5289    2.7610   20.7725 N.ar    1  UNL1       -0.1221
      7 N          -1.1524    2.1653   20.7520 N.ar    1  UNL1       -0.1282
      8 C          -0.4072    2.7596   19.5937 C.ar    1  UNL1        0.1668
      9 C           1.0058    2.4460   19.1999 C.ar    1  UNL1        0.0360
     10 C           1.3689    1.0627   18.7476 C.ar    1  UNL1        0.0032
     11 C           2.7819    0.7491   18.3538 C.ar    1  UNL1        0.0047
     12 C           3.8318    1.8190   18.4124 C.ar    1  UNL1        0.0536
     13 C           3.4687    3.2023   18.8647 C.ar    1  UNL1        0.0047
     14 C           2.0556    3.5158   19.2585 C.ar    1  UNL1        0.0032
     15 C           5.2448    1.5054   18.0186 C.ar    1  UNL1        0.2299
     16 N           5.7221    1.1756   16.6353 N.ar    1  UNL1       -0.2065
     17 C           7.2008    0.9329   16.7008 C.ar    1  UNL1        0.1427
     18 C           7.6376    1.1127   18.1245 C.ar    1  UNL1        0.2021
     19 O           6.4286    1.4665   18.9390 O.2     1  UNL1       -0.4314
     20 C          -5.4307    4.7047   21.3197 C.3     1  UNL1        0.0294
     21 C          -5.6700    3.6952   22.4031 C.3     1  UNL1        0.0730
     22 N          -4.9554    3.8205   23.7160 N.3     1  UNL1       -0.2726
     23 C          -5.5639    4.2688   25.0117 C.3     1  UNL1        0.0721
     24 C          -4.4915    4.2448   26.0602 C.3     1  UNL1        0.0190
     25 C          -3.2202    3.7817   25.4125 C.3     1  UNL1        0.0201
     26 C          -2.3767    3.8579   26.6505 C.3     1  UNL1        0.0061
     27 C          -1.7682    3.4096   25.3548 C.3     1  UNL1        0.0237
     28 C          -3.5070    3.5195   23.9637 C.3     1  UNL1        0.0724
     29 C          -0.5787    2.9360   24.5734 C.ar    1  UNL1       -0.0225
     30 C          -0.1290    1.5092   24.6830 C.ar    1  UNL1       -0.0043
     31 C           1.0605    1.0356   23.9016 C.ar    1  UNL1        0.0035
     32 C           1.8005    1.9888   23.0107 C.ar    1  UNL1        0.0714
     33 C           1.3509    3.4157   22.9011 C.ar    1  UNL1        0.0035
     34 C           0.1613    3.8893   23.6825 C.ar    1  UNL1       -0.0043
     35 C           2.9901    1.5152   22.2293 C.3     1  UNL1        0.4186
     36 F           4.1797    1.0416   21.4479 F       1  UNL1       -0.1659
     37 F           2.3836    0.1465   22.1356 F       1  UNL1       -0.1659
     38 F           3.5966    2.8839   22.3230 F       1  UNL1       -0.1659
@<TRIPOS>BOND
     1     3     4    1
     2     4     5   ar
     3     5     2    1
     4     2     1    1
     5     1    20    1
     6    20    21    1
     7    21    22    1
     8    22    23    1
     9    23    24    1
    10    25    24    1
    11    25    26    1
    12    26    27    1
    13    27    29    1
    14    29    30   ar
    15    30    31   ar
    16    31    32   ar
    17    32    35    1
    18    35    36    1
    19    35    37    1
    20    35    38    1
    21    32    33   ar
    22    33    34   ar
    23    25    28    1
    24     5     6   ar
    25     6     7   ar
    26     7     8   ar
    27     8     9    1
    28     9    10   ar
    29    10    11   ar
    30    11    12   ar
    31    12    15    1
    32    15    16   ar
    33    16    17   ar
    34    17    18   ar
    35    18    19   ar
    36    12    13   ar
    37    13    14   ar
    38     8     4   ar
    39    14     9   ar
    40    28    22    1
    41    19    15   ar
    42    27    25    1
    43    34    29   ar
@<TRIPOS>MOLECULE
*****
 38 43 0 0 0
SMALL
GASTEIGER

@<TRIPOS>ATOM
      1 C           6.2240    3.6845   17.9897 C.3     1  UNL1        0.0666
      2 S           7.1990    2.7369   17.3562 S.3     1  UNL1       -0.0756
      3 C           7.6539    1.3687   20.2838 C.3     1  UNL1        0.1340
      4 N           7.3374    0.6418   19.0104 N.ar    1  UNL1       -0.2884
      5 C           7.1283    1.2707   17.6648 C.ar    1  UNL1        0.1932
      6 N           6.8360    0.1759   16.6818 N.ar    1  UNL1       -0.1221
      7 N           6.8645   -1.1295   17.4200 N.ar    1  UNL1       -0.1282
      8 C           7.1743   -0.8417   18.8592 C.ar    1  UNL1        0.1668
      9 C           7.2992   -1.8587   19.9547 C.ar    1  UNL1        0.0360
     10 C           6.6021   -3.1812   19.8333 C.ar    1  UNL1        0.0032
     11 C           6.7270   -4.1982   20.9289 C.ar    1  UNL1        0.0047
     12 C           7.5491   -3.8925   22.1458 C.ar    1  UNL1        0.0536
     13 C           8.2462   -2.5699   22.2671 C.ar    1  UNL1        0.0047
     14 C           8.1213   -1.5530   21.1715 C.ar    1  UNL1        0.0032
     15 C           7.6739   -4.9095   23.2413 C.ar    1  UNL1        0.2299
     16 N           8.1277   -6.3299   23.0782 N.ar    1  UNL1       -0.2065
     17 C           8.1012   -6.9829   24.4283 C.ar    1  UNL1        0.1427
     18 C           7.6310   -5.9661   25.4259 C.ar    1  UNL1        0.2021
     19 O           7.3670   -4.6846   24.6922 O.2     1  UNL1       -0.4314
     20 C           4.7496    3.4400   17.8621 C.3     1  UNL1        0.0294
     21 C           3.9897    2.8261   19.0004 C.3     1  UNL1        0.0730
     22 N           3.7589    1.3444   19.0356 N.3     1  UNL1       -0.2726
     23 C           3.4913    0.4654   17.8500 C.3     1  UNL1        0.0721
     24 C           3.3222   -0.9407   18.3443 C.3     1  UNL1        0.0190
     25 C           3.4853   -0.9307   19.8354 C.3     1  UNL1        0.0201
     26 C           3.2729   -2.4032   20.0263 C.3     1  UNL1        0.0061
     27 C           3.5405   -1.5242   21.2119 C.3     1  UNL1        0.0237
     28 C           3.7552    0.4816   20.2626 C.3     1  UNL1        0.0724
     29 C           3.7268   -1.3593   22.6911 C.ar    1  UNL1       -0.0225
     30 C           2.8709   -0.3901   23.4514 C.ar    1  UNL1       -0.0043
     31 C           3.0572   -0.2252   24.9306 C.ar    1  UNL1        0.0035
     32 C           4.0994   -1.0295   25.6495 C.ar    1  UNL1        0.0714
     33 C           4.9553   -1.9988   24.8891 C.ar    1  UNL1        0.0035
     34 C           4.7690   -2.1637   23.4099 C.ar    1  UNL1       -0.0043
     35 C           4.2858   -0.8647   27.1287 C.3     1  UNL1        0.4186
     36 F           4.4721   -0.6998   28.6080 F       1  UNL1       -0.1659
     37 F           5.4216    0.0830   26.8800 F       1  UNL1       -0.1659
     38 F           3.1500   -1.8123   27.3774 F       1  UNL1       -0.1659
@<TRIPOS>BOND
     1     3     4    1
     2     4     5   ar
     3     5     2    1
     4     2     1    1
     5     1    20    1
     6    20    21    1
     7    21    22    1
     8    22    23    1
     9    23    24    1
    10    25    24    1
    11    25    26    1
    12    26    27    1
    13    27    29    1
    14    29    30   ar
    15    30    31   ar
    16    31    32   ar
    17    32    35    1
    18    35    36    1
    19    35    37    1
    20    35    38    1
    21    32    33   ar
    22    33    34   ar
    23    25    28    1
    24     5     6   ar
    25     6     7   ar
    26     7     8   ar
    27     8     9    1
    28     9    10   ar
    29    10    11   ar
    30    11    12   ar
    31    12    15    1
    32    15    16   ar
    33    16    17   ar
    34    17    18   ar
    35    18    19   ar
    36    12    13   ar
    37    13    14   ar
    38     8     4   ar
    39    14     9   ar
    40    28    22    1
    41    19    15   ar
    42    27    25    1
    43    34    29   ar
@<TRIPOS>MOLECULE
*****
 38 43 0 0 0
SMALL
GASTEIGER

@<TRIPOS>ATOM
      1 C           4.2985   -1.3986   26.6110 C.3     1  UNL1        0.0666
      2 S           3.5035   -0.1411   26.8028 S.3     1  UNL1       -0.0756
      3 C           3.7923    2.4192   28.8055 C.3     1  UNL1        0.1340
      4 N           2.8695    1.2517   28.9943 N.ar    1  UNL1       -0.2884
      5 C           2.7368    0.0749   28.0738 C.ar    1  UNL1        0.1932
      6 N           1.7028   -0.8480   28.6474 N.ar    1  UNL1       -0.1221
      7 N           1.1964   -0.2416   29.9225 N.ar    1  UNL1       -0.1282
      8 C           1.9175    1.0562   30.1369 C.ar    1  UNL1        0.1668
      9 C           1.7210    1.9937   31.2913 C.ar    1  UNL1        0.0360
     10 C           2.3665    1.7012   32.6133 C.ar    1  UNL1        0.0032
     11 C           2.1701    2.6387   33.7676 C.ar    1  UNL1        0.0047
     12 C           1.3280    3.8688   33.5998 C.ar    1  UNL1        0.0536
     13 C           0.6825    4.1613   32.2778 C.ar    1  UNL1        0.0047
     14 C           0.8790    3.2237   31.1235 C.ar    1  UNL1        0.0032
     15 C           1.1316    4.8063   34.7541 C.ar    1  UNL1        0.2299
     16 N           1.8967    4.7889   36.0442 N.ar    1  UNL1       -0.2065
     17 C           1.3735    5.8976   36.9084 C.ar    1  UNL1        0.1427
     18 C           0.2850    6.6004   36.1525 C.ar    1  UNL1        0.2021
     19 O           0.1355    5.9258   34.8210 O.2     1  UNL1       -0.4314
     20 C           5.6878   -1.4998   27.1675 C.3     1  UNL1        0.0294
     21 C           6.4983   -2.7413   26.9401 C.3     1  UNL1        0.0730
     22 N           6.7192   -3.7093   28.0644 N.3     1  UNL1       -0.2726
     23 C           7.1659   -5.1345   27.9259 C.3     1  UNL1        0.0721
     24 C           7.2549   -5.7280   29.3006 C.3     1  UNL1        0.0190
     25 C           6.8632   -4.6696   30.2888 C.3     1  UNL1        0.0201
     26 C           7.0419   -5.5216   31.5103 C.3     1  UNL1        0.0061
     27 C           6.5952   -4.0964   31.6488 C.3     1  UNL1        0.0237
     28 C           6.5321   -3.4219   29.5247 C.3     1  UNL1        0.0724
     29 C           6.1825   -2.9426   32.5139 C.ar    1  UNL1       -0.0225
     30 C           7.1599   -1.8463   32.8184 C.ar    1  UNL1       -0.0043
     31 C           6.7472   -0.6925   33.6835 C.ar    1  UNL1        0.0035
     32 C           5.3572   -0.6351   34.2442 C.ar    1  UNL1        0.0714
     33 C           4.3797   -1.7315   33.9397 C.ar    1  UNL1        0.0035
     34 C           4.7924   -2.8852   33.0746 C.ar    1  UNL1       -0.0043
     35 C           4.9445    0.5187   35.1094 C.3     1  UNL1        0.4186
     36 F           4.5318    1.6725   35.9745 F       1  UNL1       -0.1659
     37 F           4.4805   -0.4396   36.1660 F       1  UNL1       -0.1659
     38 F           5.4085    1.4769   34.0528 F       1  UNL1       -0.1659
@<TRIPOS>BOND
     1     3     4    1
     2     4     5   ar
     3     5     2    1
     4     2     1    1
     5     1    20    1
     6    20    21    1
     7    21    22    1
     8    22    23    1
     9    23    24    1
    10    25    24    1
    11    25    26    1
    12    26    27    1
    13    27    29    1
    14    29    30   ar
    15    30    31   ar
    16    31    32   ar
    17    32    35    1
    18    35    36    1
    19    35    37    1
    20    35    38    1
    21    32    33   ar
    22    33    34   ar
    23    25    28    1
    24     5     6   ar
    25     6     7   ar
    26     7     8   ar
    27     8     9    1
    28     9    10   ar
    29    10    11   ar
    30    11    12   ar
    31    12    15    1
    32    15    16   ar
    33    16    17   ar
    34    17    18   ar
    35    18    19   ar
    36    12    13   ar
    37    13    14   ar
    38     8     4   ar
    39    14     9   ar
    40    28    22    1
    41    19    15   ar
    42    27    25    1
    43    34    29   ar
@<TRIPOS>MOLECULE
*****
 38 43 0 0 0
SMALL
GASTEIGER

@<TRIPOS>ATOM
      1 C           8.1263   -4.8624   27.0179 C.3     1  UNL1        0.0666
      2 S           6.9118   -5.2813   27.7922 S.3     1  UNL1       -0.0756
      3 C           6.3009   -2.3826   29.1611 C.3     1  UNL1        0.1340
      4 N           6.5462   -3.6690   29.8926 N.ar    1  UNL1       -0.2884
      5 C           6.8270   -5.0014   29.2634 C.ar    1  UNL1        0.1932
      6 N           7.0080   -6.0047   30.3636 N.ar    1  UNL1       -0.1221
      7 N           6.8391   -5.2925   31.6729 N.ar    1  UNL1       -0.1282
      8 C           6.5537   -3.8489   31.3818 C.ar    1  UNL1        0.1668
      9 C           6.3173   -2.7740   32.4010 C.ar    1  UNL1        0.0360
     10 C           7.4395   -1.8651   32.8066 C.ar    1  UNL1        0.0032
     11 C           7.2031   -0.7902   33.8258 C.ar    1  UNL1        0.0047
     12 C           5.8443   -0.6242   34.4393 C.ar    1  UNL1        0.0536
     13 C           4.7221   -1.5330   34.0336 C.ar    1  UNL1        0.0047
     14 C           4.9586   -2.6079   33.0144 C.ar    1  UNL1        0.0032
     15 C           5.6079    0.4507   35.4584 C.ar    1  UNL1        0.2299
     16 N           5.8765    1.9149   35.2740 N.ar    1  UNL1       -0.2065
     17 C           5.4960    2.6193   36.5425 C.ar    1  UNL1        0.1427
     18 C           4.9922    1.5904   37.5109 C.ar    1  UNL1        0.2021
     19 O           5.0613    0.2501   36.8408 O.2     1  UNL1       -0.4314
     20 C           7.9847   -3.9473   25.8378 C.3     1  UNL1        0.0294
     21 C           7.0631   -4.3123   24.7120 C.3     1  UNL1        0.0730
     22 N           5.9620   -3.3762   24.3105 N.3     1  UNL1       -0.2726
     23 C           5.3577   -3.2609   22.9425 C.3     1  UNL1        0.0721
     24 C           4.2941   -2.2044   22.9932 C.3     1  UNL1        0.0190
     25 C           4.2411   -1.6667   24.3925 C.3     1  UNL1        0.0201
     26 C           3.1404   -0.6795   24.1396 C.3     1  UNL1        0.0061
     27 C           3.7447   -0.7948   25.5076 C.3     1  UNL1        0.0237
     28 C           5.2719   -2.3909   25.2067 C.3     1  UNL1        0.0724
     29 C           3.8071   -0.3580   26.9412 C.ar    1  UNL1       -0.0225
     30 C           2.8395   -0.9211   27.9396 C.ar    1  UNL1       -0.0043
     31 C           2.9019   -0.4842   29.3733 C.ar    1  UNL1        0.0035
     32 C           3.9318    0.5157   29.8085 C.ar    1  UNL1        0.0714
     33 C           4.8994    1.0787   28.8101 C.ar    1  UNL1        0.0035
     34 C           4.8370    0.6419   27.3765 C.ar    1  UNL1       -0.0043
     35 C           3.9942    0.9525   31.2421 C.3     1  UNL1        0.4186
     36 F           4.0565    1.3893   32.6758 F       1  UNL1       -0.1659
     37 F           5.4692    0.6806   31.2607 F       1  UNL1       -0.1659
     38 F           2.5192    1.2243   31.2234 F       1  UNL1       -0.1659
@<TRIPOS>BOND
     1     3     4    1
     2     4     5   ar
     3     5     2    1
     4     2     1    1
     5     1    20    1
     6    20    21    1
     7    21    22    1
     8    22    23    1
     9    23    24    1
    10    25    24    1
    11    25    26    1
    12    26    27    1
    13    27    29    1
    14    29    30   ar
    15    30    31   ar
    16    31    32   ar
    17    32    35    1
    18    35    36    1
    19    35    37    1
    20    35    38    1
    21    32    33   ar
    22    33    34   ar
    23    25    28    1
    24     5     6   ar
    25     6     7   ar
    26     7     8   ar
    27     8     9    1
    28     9    10   ar
    29    10    11   ar
    30    11    12   ar
    31    12    15    1
    32    15    16   ar
    33    16    17   ar
    34    17    18   ar
    35    18    19   ar
    36    12    13   ar
    37    13    14   ar
    38     8     4   ar
    39    14     9   ar
    40    28    22    1
    41    19    15   ar
    42    27    25    1
    43    34    29   ar
@<TRIPOS>MOLECULE
*****
 38 43 0 0 0
SMALL
GASTEIGER

@<TRIPOS>ATOM
      1 C           8.2123    2.3983   17.8551 C.3     1  UNL1        0.0666
      2 S           7.6163    3.4424   18.7521 S.3     1  UNL1       -0.0756
      3 C           4.7321    4.1990   17.4260 C.3     1  UNL1        0.1340
      4 N           4.9461    3.5631   18.7676 N.ar    1  UNL1       -0.2884
      5 C           6.2718    3.2154   19.3772 C.ar    1  UNL1        0.1932
      6 N           6.0169    2.6007   20.7215 N.ar    1  UNL1       -0.1221
      7 N           4.5337    2.5685   20.9428 N.ar    1  UNL1       -0.1282
      8 C           3.8718    3.1634   19.7352 C.ar    1  UNL1        0.1668
      9 C           2.3950    3.3293   19.5312 C.ar    1  UNL1        0.0360
     10 C           1.7058    2.6021   18.4149 C.ar    1  UNL1        0.0032
     11 C           0.2290    2.7680   18.2108 C.ar    1  UNL1        0.0047
     12 C          -0.5585    3.6612   19.1231 C.ar    1  UNL1        0.0536
     13 C           0.1308    4.3884   20.2394 C.ar    1  UNL1        0.0047
     14 C           1.6076    4.2224   20.4434 C.ar    1  UNL1        0.0032
     15 C          -2.0352    3.8271   18.9190 C.ar    1  UNL1        0.2299
     16 N          -2.6990    4.3827   17.6940 N.ar    1  UNL1       -0.2065
     17 C          -4.1815    4.3655   17.9220 C.ar    1  UNL1        0.1427
     18 C          -4.4340    3.7993   19.2879 C.ar    1  UNL1        0.2021
     19 O          -3.1074    3.4666   19.9041 O.2     1  UNL1       -0.4314
     20 C           7.4951    1.0991   17.6368 C.3     1  UNL1        0.0294
     21 C           7.5853    0.0105   18.6648 C.3     1  UNL1        0.0730
     22 N           6.5470   -1.0712   18.7049 N.3     1  UNL1       -0.2726
     23 C           6.6493   -2.4163   18.0489 C.3     1  UNL1        0.0721
     24 C           5.3896   -3.1742   18.3465 C.3     1  UNL1        0.0190
     25 C           4.5086   -2.2975   19.1865 C.3     1  UNL1        0.0201
     26 C           3.3839   -3.2817   19.3141 C.3     1  UNL1        0.0061
     27 C           3.2815   -1.9367   19.9701 C.3     1  UNL1        0.0237
     28 C           5.2240   -0.9978   19.4080 C.3     1  UNL1        0.0724
     29 C           2.5140   -0.9517   20.8012 C.ar    1  UNL1       -0.0225
     30 C           3.0535   -0.5099   22.1293 C.ar    1  UNL1       -0.0043
     31 C           2.2859    0.4750   22.9605 C.ar    1  UNL1        0.0035
     32 C           0.9790    1.0181   22.4635 C.ar    1  UNL1        0.0714
     33 C           0.4396    0.5763   21.1354 C.ar    1  UNL1        0.0035
     34 C           1.2071   -0.4087   20.3043 C.ar    1  UNL1       -0.0043
     35 C           0.2115    2.0030   23.2947 C.3     1  UNL1        0.4186
     36 F          -0.5560    2.9880   24.1259 F       1  UNL1       -0.1659
     37 F          -0.7504    2.2090   22.1623 F       1  UNL1       -0.1659
     38 F           1.1734    1.7971   24.4270 F       1  UNL1       -0.1659
@<TRIPOS>BOND
     1     3     4    1
     2     4     5   ar
     3     5     2    1
     4     2     1    1
     5     1    20    1
     6    20    21    1
     7    21    22    1
     8    22    23    1
     9    23    24    1
    10    25    24    1
    11    25    26    1
    12    26    27    1
    13    27    29    1
    14    29    30   ar
    15    30    31   ar
    16    31    32   ar
    17    32    35    1
    18    35    36    1
    19    35    37    1
    20    35    38    1
    21    32    33   ar
    22    33    34   ar
    23    25    28    1
    24     5     6   ar
    25     6     7   ar
    26     7     8   ar
    27     8     9    1
    28     9    10   ar
    29    10    11   ar
    30    11    12   ar
    31    12    15    1
    32    15    16   ar
    33    16    17   ar
    34    17    18   ar
    35    18    19   ar
    36    12    13   ar
    37    13    14   ar
    38     8     4   ar
    39    14     9   ar
    40    28    22    1
    41    19    15   ar
    42    27    25    1
    43    34    29   ar
@<TRIPOS>MOLECULE
*****
 38 43 0 0 0
SMALL
GASTEIGER

@<TRIPOS>ATOM
      1 C           7.4425   -3.6456   21.0694 C.3     1  UNL1        0.0666
      2 S           7.5690   -2.7683   19.8593 S.3     1  UNL1       -0.0756
      3 C           5.3657   -0.7991   21.2441 C.3     1  UNL1        0.1340
      4 N           5.3264   -1.3140   19.8358 N.ar    1  UNL1       -0.2884
      5 C           6.3391   -2.2191   19.1993 C.ar    1  UNL1        0.1932
      6 N           5.9060   -2.4786   17.7868 N.ar    1  UNL1       -0.1221
      7 N           4.6255   -1.7339   17.5503 N.ar    1  UNL1       -0.1282
      8 C           4.2673   -1.0141   18.8167 C.ar    1  UNL1        0.1668
      9 C           3.0617   -0.1467   19.0269 C.ar    1  UNL1        0.0360
     10 C           3.0280    1.2412   18.4590 C.ar    1  UNL1        0.0032
     11 C           1.8224    2.1086   18.6693 C.ar    1  UNL1        0.0047
     12 C           0.6505    1.5879   19.4476 C.ar    1  UNL1        0.0536
     13 C           0.6841    0.2000   20.0155 C.ar    1  UNL1        0.0047
     14 C           1.8898   -0.6673   19.8051 C.ar    1  UNL1        0.0032
     15 C          -0.5551    2.4553   19.6578 C.ar    1  UNL1        0.2299
     16 N          -0.9943    3.5841   18.7730 N.ar    1  UNL1       -0.2065
     17 C          -2.2438    4.1726   19.3581 C.ar    1  UNL1        0.1427
     18 C          -2.5769    3.4075   20.6047 C.ar    1  UNL1        0.2021
     19 O          -1.5332    2.3462   20.7899 O.2     1  UNL1       -0.4314
     20 C           7.9516   -3.1693   22.3976 C.3     1  UNL1        0.0294
     21 C           9.0464   -3.9213   23.0947 C.3     1  UNL1        0.0730
     22 N           8.7480   -5.2286   23.7669 N.3     1  UNL1       -0.2726
     23 C           8.8167   -6.5842   23.1284 C.3     1  UNL1        0.0721
     24 C           8.4397   -7.6032   24.1626 C.3     1  UNL1        0.0190
     25 C           8.1381   -6.8775   25.4402 C.3     1  UNL1        0.0201
     26 C           7.8098   -8.1017   26.2423 C.3     1  UNL1        0.0061
     27 C           7.7411   -6.7461   26.8807 C.3     1  UNL1        0.0237
     28 C           8.3286   -5.4098   25.1956 C.3     1  UNL1        0.0724
     29 C           7.4723   -5.8877   28.0811 C.ar    1  UNL1       -0.0225
     30 C           6.6550   -4.6377   27.9413 C.ar    1  UNL1       -0.0043
     31 C           6.3862   -3.7793   29.1416 C.ar    1  UNL1        0.0035
     32 C           6.9347   -4.1708   30.4817 C.ar    1  UNL1        0.0714
     33 C           7.7521   -5.4207   30.6214 C.ar    1  UNL1        0.0035
     34 C           8.0209   -6.2792   29.4211 C.ar    1  UNL1       -0.0043
     35 C           6.6659   -3.3123   31.6820 C.3     1  UNL1        0.4186
     36 F           6.3971   -2.4539   32.8824 F       1  UNL1       -0.1659
     37 F           7.0020   -2.0887   30.8821 F       1  UNL1       -0.1659
     38 F           6.3299   -4.5359   32.4818 F       1  UNL1       -0.1659
@<TRIPOS>BOND
     1     3     4    1
     2     4     5   ar
     3     5     2    1
     4     2     1    1
     5     1    20    1
     6    20    21    1
     7    21    22    1
     8    22    23    1
     9    23    24    1
    10    25    24    1
    11    25    26    1
    12    26    27    1
    13    27    29    1
    14    29    30   ar
    15    30    31   ar
    16    31    32   ar
    17    32    35    1
    18    35    36    1
    19    35    37    1
    20    35    38    1
    21    32    33   ar
    22    33    34   ar
    23    25    28    1
    24     5     6   ar
    25     6     7   ar
    26     7     8   ar
    27     8     9    1
    28     9    10   ar
    29    10    11   ar
    30    11    12   ar
    31    12    15    1
    32    15    16   ar
    33    16    17   ar
    34    17    18   ar
    35    18    19   ar
    36    12    13   ar
    37    13    14   ar
    38     8     4   ar
    39    14     9   ar
    40    28    22    1
    41    19    15   ar
    42    27    25    1
    43    34    29   ar
@<TRIPOS>MOLECULE
*****
 38 43 0 0 0
SMALL
GASTEIGER

@<TRIPOS>ATOM
      1 C           7.9502   -3.6422   20.3951 C.3     1  UNL1        0.0666
      2 S           7.8621   -2.3379   19.6597 S.3     1  UNL1       -0.0756
      3 C           5.6574   -0.3616   21.0320 C.3     1  UNL1        0.1340
      4 N           5.5482   -0.9998   19.6789 N.ar    1  UNL1       -0.2884
      5 C           6.5615   -1.9081   19.0481 C.ar    1  UNL1        0.1932
      6 N           6.0461   -2.3114   17.6984 N.ar    1  UNL1       -0.1221
      7 N           4.7142   -1.6523   17.4950 N.ar    1  UNL1       -0.1282
      8 C           4.4063   -0.8416   18.7190 C.ar    1  UNL1        0.1668
      9 C           3.1733   -0.0175   18.9436 C.ar    1  UNL1        0.0360
     10 C           2.0242   -0.5842   19.7236 C.ar    1  UNL1        0.0032
     11 C           0.7912    0.2399   19.9482 C.ar    1  UNL1        0.0047
     12 C           0.7073    1.6308   19.3928 C.ar    1  UNL1        0.0536
     13 C           1.8564    2.1976   18.6129 C.ar    1  UNL1        0.0047
     14 C           3.0895    1.3734   18.3883 C.ar    1  UNL1        0.0032
     15 C          -0.5257    2.4549   19.6175 C.ar    1  UNL1        0.2299
     16 N          -1.4050    2.4131   20.8321 N.ar    1  UNL1       -0.2065
     17 C          -2.5186    3.3978   20.6322 C.ar    1  UNL1        0.1427
     18 C          -2.3278    4.0483   19.2941 C.ar    1  UNL1        0.2021
     19 O          -1.0960    3.4656   18.6670 O.2     1  UNL1       -0.4314
     20 C           7.0063   -3.9317   21.5244 C.3     1  UNL1        0.0294
     21 C           7.5293   -4.4900   22.8147 C.3     1  UNL1        0.0730
     22 N           7.0375   -3.9438   24.1223 N.3     1  UNL1       -0.2726
     23 C           7.3106   -4.5235   25.4785 C.3     1  UNL1        0.0721
     24 C           6.6282   -3.6600   26.4976 C.3     1  UNL1        0.0190
     25 C           5.9333   -2.5466   25.7712 C.3     1  UNL1        0.0201
     26 C           5.3716   -1.8870   26.9957 C.3     1  UNL1        0.0061
     27 C           5.0985   -1.3074   25.6395 C.3     1  UNL1        0.0237
     28 C           6.1863   -2.7221   24.3032 C.3     1  UNL1        0.0724
     29 C           4.4589   -0.2572   24.7804 C.ar    1  UNL1       -0.0225
     30 C           5.1284    1.0726   24.5979 C.ar    1  UNL1       -0.0043
     31 C           4.4888    2.1228   23.7388 C.ar    1  UNL1        0.0035
     32 C           3.1796    1.8430   23.0622 C.ar    1  UNL1        0.0714
     33 C           2.5101    0.5132   23.2446 C.ar    1  UNL1        0.0035
     34 C           3.1497   -0.5370   24.1037 C.ar    1  UNL1       -0.0043
     35 C           2.5400    2.8932   22.2031 C.3     1  UNL1        0.4186
     36 F           1.9003    3.9433   21.3439 F       1  UNL1       -0.1659
     37 F           3.8540    3.1361   21.5217 F       1  UNL1       -0.1659
     38 F           1.2260    2.6502   22.8844 F       1  UNL1       -0.1659
@<TRIPOS>BOND
     1     3     4    1
     2     4     5   ar
     3     5     2    1
     4     2     1    1
     5     1    20    1
     6    20    21    1
     7    21    22    1
     8    22    23    1
     9    23    24    1
    10    25    24    1
    11    25    26    1
    12    26    27    1
    13    27    29    1
    14    29    30   ar
    15    30    31   ar
    16    31    32   ar
    17    32    35    1
    18    35    36    1
    19    35    37    1
    20    35    38    1
    21    32    33   ar
    22    33    34   ar
    23    25    28    1
    24     5     6   ar
    25     6     7   ar
    26     7     8   ar
    27     8     9    1
    28     9    10   ar
    29    10    11   ar
    30    11    12   ar
    31    12    15    1
    32    15    16   ar
    33    16    17   ar
    34    17    18   ar
    35    18    19   ar
    36    12    13   ar
    37    13    14   ar
    38     8     4   ar
    39    14     9   ar
    40    28    22    1
    41    19    15   ar
    42    27    25    1
    43    34    29   ar
