@<TRIPOS>MOLECULE
*****
 31 33 0 0 0
SMALL
GASTEIGER

@<TRIPOS>ATOM
      1 C          -8.0653  -19.8151   19.5824 C.ar    1  UNL1        0.1042
      2 C          -6.6111  -20.0773   19.8405 C.ar    1  UNL1        0.0335
      3 C          -5.9137  -19.3848   20.9737 C.ar    1  UNL1        0.1261
      4 C          -6.6705  -18.4302   21.8489 C.ar    1  UNL1        0.0234
      5 C          -8.1247  -18.1680   21.5908 C.ar    1  UNL1        0.0396
      6 C          -8.8220  -18.8605   20.4575 C.ar    1  UNL1        0.1549
      7 S          -4.4595  -19.6470   21.2318 S.O2    1  UNL1        0.0747
      8 O          -4.2125  -19.7306   19.7547 O.2     1  UNL1       -0.1499
      9 O          -4.7065  -19.5635   22.7089 O.2     1  UNL1       -0.1499
     10 N          -3.0053  -19.9092   21.4898 N.pl3   1  UNL1       -0.1989
     11 H          -2.7306  -20.7150   21.9844 H       1  UNL1        0.1753
     12 C          -1.9697  -18.9438   20.9943 C.ar    1  UNL1        0.1472
     13 C          -2.0355  -17.5007   21.3980 C.ar    1  UNL1        0.0379
     14 C          -0.9998  -16.5354   20.9024 C.ar    1  UNL1        0.0342
     15 C           0.1016  -17.0132   20.0032 C.ar    1  UNL1        0.1593
     16 F           1.1372  -16.0478   19.5077 F       1  UNL1       -0.2025
     17 C           0.1674  -18.4564   19.5995 C.ar    1  UNL1        0.1299
     18 N          -0.8683  -19.4217   20.0951 N.ar    1  UNL1       -0.2256
     19 N          -9.4600  -21.2000   17.3160 N.1     1  UNL1       -0.1907
     20 C          -8.7626  -20.5075   18.4492 C.1     1  UNL1        0.1035
     21 O         -10.2763  -18.5982   20.1995 O.3     1  UNL1       -0.4528
     22 C         -11.2261  -18.4433   21.3500 C.ar    1  UNL1        0.1462
     23 C         -12.5491  -17.7667   21.1445 C.ar    1  UNL1        0.0373
     24 C         -13.4989  -17.6117   22.2950 C.ar    1  UNL1        0.0021
     25 C         -13.1259  -18.1334   23.6510 C.ar    1  UNL1        0.0177
     26 C         -11.8031  -18.8100   23.8565 C.ar    1  UNL1        0.0591
     27 CL        -11.4301  -19.3316   25.2125 Cl      1  UNL1       -0.0824
     28 C         -10.8532  -18.9649   22.7060 C.ar    1  UNL1        0.0486
     29 C         -14.0758  -17.9784   24.8015 C.3     1  UNL1        0.1644
     30 O         -15.3676  -18.7409   24.8156 O.3     1  UNL1       -0.3772
     31 H         -15.9351  -18.4288   24.0934 H       1  UNL1        0.2109
@<TRIPOS>BOND
     1    19    20    3
     2    20     1    1
     3     1     2   ar
     4     2     3   ar
     5     3     7    1
     6     7     8    2
     7     7     9    2
     8     7    10    1
     9    10    12    1
    10    12    13   ar
    11    13    14   ar
    12    14    15   ar
    13    15    16    1
    14    15    17   ar
    15    17    18   ar
    16     3     4   ar
    17     4     5   ar
    18     5     6   ar
    19     6    21    1
    20    21    22    1
    21    22    23   ar
    22    23    24   ar
    23    24    25   ar
    24    25    29    1
    25    29    30    1
    26    25    26   ar
    27    26    27    1
    28    26    28   ar
    29     6     1   ar
    30    28    22   ar
    31    18    12   ar
    32    10    11    1
    33    30    31    1
@<TRIPOS>MOLECULE
*****
 31 33 0 0 0
SMALL
GASTEIGER

@<TRIPOS>ATOM
      1 C         -14.1023    0.8894   18.2309 C.ar    1  UNL1        0.1042
      2 C         -12.8299    0.0967   18.2816 C.ar    1  UNL1        0.0335
      3 C         -12.8528   -1.3295   18.7456 C.ar    1  UNL1        0.1261
      4 C         -14.1480   -1.9631   19.1589 C.ar    1  UNL1        0.0234
      5 C         -15.4204   -1.1705   19.1083 C.ar    1  UNL1        0.0396
      6 C         -15.3976    0.2558   18.6442 C.ar    1  UNL1        0.1549
      7 S         -11.5802   -2.1222   18.7963 S.O2    1  UNL1        0.0747
      8 O         -12.2363   -3.1170   19.7072 O.2     1  UNL1       -0.1499
      9 O         -10.9242   -1.1274   17.8854 O.2     1  UNL1       -0.1499
     10 N         -10.3078   -2.9148   18.8470 N.pl3   1  UNL1       -0.1989
     11 H          -9.4710   -2.4845   19.1366 H       1  UNL1        0.1753
     12 C         -10.3103   -4.3632   18.4565 C.ar    1  UNL1        0.1472
     13 C          -9.6048   -5.3722   19.3133 C.ar    1  UNL1        0.0379
     14 C          -9.6073   -6.8204   18.9228 C.ar    1  UNL1        0.0342
     15 C         -10.3154   -7.2597   17.6755 C.ar    1  UNL1        0.1593
     16 F         -10.3179   -8.7080   17.2851 F       1  UNL1       -0.2025
     17 C         -11.0209   -6.2507   16.8188 C.ar    1  UNL1        0.1299
     18 N         -11.0184   -4.8024   17.2093 N.ar    1  UNL1       -0.2256
     19 N         -14.0567    3.7418   17.3029 N.1     1  UNL1       -0.1907
     20 C         -14.0795    2.3156   17.7669 C.1     1  UNL1        0.1035
     21 O         -16.6701    1.0484   18.5936 O.3     1  UNL1       -0.4528
     22 C         -17.4189    1.3465   19.8586 C.ar    1  UNL1        0.1462
     23 C         -18.8315    0.8698   20.0241 C.ar    1  UNL1        0.0373
     24 C         -19.5804    1.1678   21.2891 C.ar    1  UNL1        0.0021
     25 C         -18.9166    1.9426   22.3888 C.ar    1  UNL1        0.0177
     26 C         -17.5041    2.4193   22.2233 C.ar    1  UNL1        0.0591
     27 CL        -16.8403    3.1941   23.3230 Cl      1  UNL1       -0.0824
     28 C         -16.7552    2.1212   20.9583 C.ar    1  UNL1        0.0486
     29 C         -19.6654    2.2407   23.6538 C.3     1  UNL1        0.1644
     30 O         -19.4156    1.4200   24.8844 O.3     1  UNL1       -0.3772
     31 H         -19.7118    0.5092   24.7312 H       1  UNL1        0.2109
@<TRIPOS>BOND
     1    19    20    3
     2    20     1    1
     3     1     2   ar
     4     2     3   ar
     5     3     7    1
     6     7     8    2
     7     7     9    2
     8     7    10    1
     9    10    12    1
    10    12    13   ar
    11    13    14   ar
    12    14    15   ar
    13    15    16    1
    14    15    17   ar
    15    17    18   ar
    16     3     4   ar
    17     4     5   ar
    18     5     6   ar
    19     6    21    1
    20    21    22    1
    21    22    23   ar
    22    23    24   ar
    23    24    25   ar
    24    25    29    1
    25    29    30    1
    26    25    26   ar
    27    26    27    1
    28    26    28   ar
    29     6     1   ar
    30    28    22   ar
    31    18    12   ar
    32    10    11    1
    33    30    31    1
@<TRIPOS>MOLECULE
*****
 31 33 0 0 0
SMALL
GASTEIGER

@<TRIPOS>ATOM
      1 C           6.0527   -2.9691   20.2097 C.ar    1  UNL1        0.1042
      2 C           7.0360   -3.2057   21.3175 C.ar    1  UNL1        0.0335
      3 C           6.5494   -3.5983   22.6810 C.ar    1  UNL1        0.1261
      4 C           5.0797   -3.7544   22.9367 C.ar    1  UNL1        0.0234
      5 C           4.0965   -3.5178   21.8289 C.ar    1  UNL1        0.0396
      6 C           4.5830   -3.1252   20.4654 C.ar    1  UNL1        0.1549
      7 S           7.5328   -3.8349   23.7888 S.O2    1  UNL1        0.0747
      8 O           6.4260   -3.7229   24.7950 O.2     1  UNL1       -0.1499
      9 O           8.6395   -3.9469   22.7826 O.2     1  UNL1       -0.1499
     10 N           8.5160   -4.0715   24.8966 N.pl3   1  UNL1       -0.1989
     11 H           9.1926   -3.3885   25.1084 H       1  UNL1        0.1753
     12 C           8.4683   -5.3488   25.6817 C.ar    1  UNL1        0.1472
     13 C           8.2716   -6.6569   24.9745 C.ar    1  UNL1        0.0379
     14 C           8.2239   -7.9341   25.7596 C.ar    1  UNL1        0.0342
     15 C           8.3730   -7.9032   27.2519 C.ar    1  UNL1        0.1593
     16 F           8.3253   -9.1805   28.0370 F       1  UNL1       -0.2025
     17 C           8.5697   -6.5951   27.9590 C.ar    1  UNL1        0.1299
     18 N           8.6174   -5.3179   27.1739 N.ar    1  UNL1       -0.2256
     19 N           7.0258   -2.1837   17.4827 N.1     1  UNL1       -0.1907
     20 C           6.5392   -2.5764   18.8462 C.1     1  UNL1        0.1035
     21 O           3.5997   -2.8886   19.3576 O.3     1  UNL1       -0.4528
     22 C           2.9732   -1.5364   19.1869 C.ar    1  UNL1        0.1462
     23 C           3.5229   -0.5777   18.1727 C.ar    1  UNL1        0.0373
     24 C           2.8964    0.7745   18.0020 C.ar    1  UNL1        0.0021
     25 C           1.7202    1.1679   18.8456 C.ar    1  UNL1        0.0177
     26 C           1.1704    0.2093   19.8598 C.ar    1  UNL1        0.0591
     27 CL         -0.0059    0.6028   20.7033 Cl      1  UNL1       -0.0824
     28 C           1.7969   -1.1429   20.0305 C.ar    1  UNL1        0.0486
     29 C           1.0937    2.5201   18.6749 C.3     1  UNL1        0.1644
     30 O          -0.0529    2.7009   17.7247 O.3     1  UNL1       -0.3772
     31 H           0.2523    2.5477   16.8168 H       1  UNL1        0.2109
@<TRIPOS>BOND
     1    19    20    3
     2    20     1    1
     3     1     2   ar
     4     2     3   ar
     5     3     7    1
     6     7     8    2
     7     7     9    2
     8     7    10    1
     9    10    12    1
    10    12    13   ar
    11    13    14   ar
    12    14    15   ar
    13    15    16    1
    14    15    17   ar
    15    17    18   ar
    16     3     4   ar
    17     4     5   ar
    18     5     6   ar
    19     6    21    1
    20    21    22    1
    21    22    23   ar
    22    23    24   ar
    23    24    25   ar
    24    25    29    1
    25    29    30    1
    26    25    26   ar
    27    26    27    1
    28    26    28   ar
    29     6     1   ar
    30    28    22   ar
    31    18    12   ar
    32    10    11    1
    33    30    31    1
@<TRIPOS>MOLECULE
*****
 31 33 0 0 0
SMALL
GASTEIGER

@<TRIPOS>ATOM
      1 C           5.8941   -1.9030   19.1088 C.ar    1  UNL1        0.1042
      2 C           6.9675   -2.4474   20.0040 C.ar    1  UNL1        0.0335
      3 C           6.6016   -3.3129   21.1732 C.ar    1  UNL1        0.1261
      4 C           5.1622   -3.6340   21.4471 C.ar    1  UNL1        0.0234
      5 C           4.0888   -3.0897   20.5519 C.ar    1  UNL1        0.0396
      6 C           4.4548   -2.2241   19.3827 C.ar    1  UNL1        0.1549
      7 S           7.6750   -3.8573   22.0684 S.O2    1  UNL1        0.0747
      8 O           7.6320   -2.5996   22.8847 O.2     1  UNL1       -0.1499
      9 O           7.7181   -5.1149   21.2522 O.2     1  UNL1       -0.1499
     10 N           8.7484   -4.4016   22.9636 N.pl3   1  UNL1       -0.1989
     11 H           9.6682   -4.0573   22.8949 H       1  UNL1        0.1753
     12 C           8.4205   -5.4705   23.9636 C.ar    1  UNL1        0.1472
     13 C           9.0983   -6.8062   23.8832 C.ar    1  UNL1        0.0379
     14 C           8.7703   -7.8750   24.8832 C.ar    1  UNL1        0.0342
     15 C           7.7646   -7.6082   25.9636 C.ar    1  UNL1        0.1593
     16 F           7.4367   -8.6771   26.9636 F       1  UNL1       -0.2025
     17 C           7.0868   -6.2725   26.0440 C.ar    1  UNL1        0.1299
     18 N           7.4148   -5.2036   25.0441 N.ar    1  UNL1       -0.2256
     19 N           6.6261   -0.1719   16.7705 N.1     1  UNL1       -0.1907
     20 C           6.2601   -1.0375   17.9396 C.1     1  UNL1        0.1035
     21 O           3.3813   -1.6798   18.4875 O.3     1  UNL1       -0.4528
     22 C           2.4875   -0.5773   18.9729 C.ar    1  UNL1        0.1462
     23 C           1.4057   -0.8726   19.9692 C.ar    1  UNL1        0.0373
     24 C           0.5119    0.2298   20.4546 C.ar    1  UNL1        0.0021
     25 C           0.6998    1.6276   19.9438 C.ar    1  UNL1        0.0177
     26 C           1.7816    1.9229   18.9476 C.ar    1  UNL1        0.0591
     27 CL          1.9695    3.3207   18.4368 Cl      1  UNL1       -0.0824
     28 C           2.6755    0.8204   18.4621 C.ar    1  UNL1        0.0486
     29 C          -0.1940    2.7300   20.4293 C.3     1  UNL1        0.1644
     30 O          -1.6198    2.4354   20.7906 O.3     1  UNL1       -0.3772
     31 H          -2.1068    2.1702   19.9948 H       1  UNL1        0.2109
@<TRIPOS>BOND
     1    19    20    3
     2    20     1    1
     3     1     2   ar
     4     2     3   ar
     5     3     7    1
     6     7     8    2
     7     7     9    2
     8     7    10    1
     9    10    12    1
    10    12    13   ar
    11    13    14   ar
    12    14    15   ar
    13    15    16    1
    14    15    17   ar
    15    17    18   ar
    16     3     4   ar
    17     4     5   ar
    18     5     6   ar
    19     6    21    1
    20    21    22    1
    21    22    23   ar
    22    23    24   ar
    23    24    25   ar
    24    25    29    1
    25    29    30    1
    26    25    26   ar
    27    26    27    1
    28    26    28   ar
    29     6     1   ar
    30    28    22   ar
    31    18    12   ar
    32    10    11    1
    33    30    31    1
@<TRIPOS>MOLECULE
*****
 31 33 0 0 0
SMALL
GASTEIGER

@<TRIPOS>ATOM
      1 C         -15.3222   -1.0388   19.2230 C.ar    1  UNL1        0.1042
      2 C         -14.0535   -1.8367   19.1647 C.ar    1  UNL1        0.0335
      3 C         -12.7700   -1.1761   18.7569 C.ar    1  UNL1        0.1261
      4 C         -12.7553    0.2825   18.4074 C.ar    1  UNL1        0.0234
      5 C         -14.0241    1.0805   18.4657 C.ar    1  UNL1        0.0396
      6 C         -15.3075    0.4198   18.8735 C.ar    1  UNL1        0.1549
      7 S         -11.5012   -1.9741   18.6987 S.O2    1  UNL1        0.0747
      8 O         -10.9262   -0.9887   17.7249 O.2     1  UNL1       -0.1499
      9 O         -12.0762   -2.9596   19.6724 O.2     1  UNL1       -0.1499
     10 N         -10.2324   -2.7721   18.6404 N.pl3   1  UNL1       -0.1989
     11 H          -9.3686   -2.3374   18.8249 H       1  UNL1        0.1753
     12 C         -10.2798   -4.2325   18.3009 C.ar    1  UNL1        0.1472
     13 C          -9.6213   -5.2339   19.2028 C.ar    1  UNL1        0.0379
     14 C          -9.6687   -6.6941   18.8633 C.ar    1  UNL1        0.0342
     15 C         -10.3746   -7.1530   17.6219 C.ar    1  UNL1        0.1593
     16 F         -10.4219   -8.6134   17.2824 F       1  UNL1       -0.2025
     17 C         -11.0331   -6.1516   16.7200 C.ar    1  UNL1        0.1299
     18 N         -10.9857   -4.6913   17.0595 N.ar    1  UNL1       -0.2256
     19 N         -17.8891   -2.3600   20.0386 N.1     1  UNL1       -0.1907
     20 C         -16.6057   -1.6994   19.6308 C.1     1  UNL1        0.1035
     21 O         -16.5763    1.2179   18.9318 O.3     1  UNL1       -0.4528
     22 C         -16.7829    2.2190   20.0295 C.ar    1  UNL1        0.1462
     23 C         -16.4259    3.6590   19.8083 C.ar    1  UNL1        0.0373
     24 C         -16.6325    4.6601   20.9061 C.ar    1  UNL1        0.0021
     25 C         -17.1962    4.2212   22.2250 C.ar    1  UNL1        0.0177
     26 C         -17.5532    2.7813   22.4463 C.ar    1  UNL1        0.0591
     27 CL        -18.1169    2.3424   23.7652 Cl      1  UNL1       -0.0824
     28 C         -17.3466    1.7801   21.3485 C.ar    1  UNL1        0.0486
     29 C         -17.4028    5.2223   23.3228 C.3     1  UNL1        0.1644
     30 O         -18.6893    5.9892   23.4062 O.3     1  UNL1       -0.3772
     31 H         -18.7675    6.5741   22.6363 H       1  UNL1        0.2109
@<TRIPOS>BOND
     1    19    20    3
     2    20     1    1
     3     1     2   ar
     4     2     3   ar
     5     3     7    1
     6     7     8    2
     7     7     9    2
     8     7    10    1
     9    10    12    1
    10    12    13   ar
    11    13    14   ar
    12    14    15   ar
    13    15    16    1
    14    15    17   ar
    15    17    18   ar
    16     3     4   ar
    17     4     5   ar
    18     5     6   ar
    19     6    21    1
    20    21    22    1
    21    22    23   ar
    22    23    24   ar
    23    24    25   ar
    24    25    29    1
    25    29    30    1
    26    25    26   ar
    27    26    27    1
    28    26    28   ar
    29     6     1   ar
    30    28    22   ar
    31    18    12   ar
    32    10    11    1
    33    30    31    1
@<TRIPOS>MOLECULE
*****
 31 33 0 0 0
SMALL
GASTEIGER

@<TRIPOS>ATOM
      1 C           3.4123    2.5959   33.4468 C.ar    1  UNL1        0.1042
      2 C           3.0557    2.0614   32.0914 C.ar    1  UNL1        0.0335
      3 C           3.2181    0.6000   31.7949 C.ar    1  UNL1        0.1261
      4 C           3.7372   -0.3269   32.8538 C.ar    1  UNL1        0.0234
      5 C           4.0938    0.2075   34.2092 C.ar    1  UNL1        0.0396
      6 C           3.9313    1.6689   34.5057 C.ar    1  UNL1        0.1549
      7 S           2.8615    0.0656   30.4394 S.O2    1  UNL1        0.0747
      8 O           3.4243    1.3022   29.8039 O.2     1  UNL1       -0.1499
      9 O           2.2987   -1.1710   31.0750 O.2     1  UNL1       -0.1499
     10 N           2.5050   -0.4688   29.0840 N.pl3   1  UNL1       -0.1989
     11 H           2.9389   -1.2858   28.7472 H       1  UNL1        0.1753
     12 C           1.4872    0.2417   28.2416 C.ar    1  UNL1        0.1472
     13 C           0.0794    0.3949   28.7362 C.ar    1  UNL1        0.0379
     14 C          -0.9382    1.1053   27.8939 C.ar    1  UNL1        0.0342
     15 C          -0.5482    1.6625   26.5570 C.ar    1  UNL1        0.1593
     16 F          -1.5659    2.3729   25.7146 F       1  UNL1       -0.2025
     17 C           0.8596    1.5092   26.0624 C.ar    1  UNL1        0.1299
     18 N           1.8773    0.7988   26.9047 N.ar    1  UNL1       -0.2256
     19 N           3.0873    5.5187   34.0398 N.1     1  UNL1       -0.1907
     20 C           3.2498    4.0573   33.7433 C.1     1  UNL1        0.1035
     21 O           4.2879    2.2034   35.8612 O.3     1  UNL1       -0.4528
     22 C           3.2579    2.2310   36.9513 C.ar    1  UNL1        0.1462
     23 C           2.4415    3.4683   37.1807 C.ar    1  UNL1        0.0373
     24 C           1.4115    3.4959   38.2707 C.ar    1  UNL1        0.0021
     25 C           1.1978    2.2862   39.1315 C.ar    1  UNL1        0.0177
     26 C           2.0142    1.0489   38.9022 C.ar    1  UNL1        0.0591
     27 CL          1.8005   -0.1609   39.7629 Cl      1  UNL1       -0.0824
     28 C           3.0442    1.0212   37.8121 C.ar    1  UNL1        0.0486
     29 C           0.1679    2.3138   40.2216 C.3     1  UNL1        0.1644
     30 O           0.5754    2.6273   41.6308 O.3     1  UNL1       -0.3772
     31 H           1.1482    1.9202   41.9666 H       1  UNL1        0.2109
@<TRIPOS>BOND
     1    19    20    3
     2    20     1    1
     3     1     2   ar
     4     2     3   ar
     5     3     7    1
     6     7     8    2
     7     7     9    2
     8     7    10    1
     9    10    12    1
    10    12    13   ar
    11    13    14   ar
    12    14    15   ar
    13    15    16    1
    14    15    17   ar
    15    17    18   ar
    16     3     4   ar
    17     4     5   ar
    18     5     6   ar
    19     6    21    1
    20    21    22    1
    21    22    23   ar
    22    23    24   ar
    23    24    25   ar
    24    25    29    1
    25    29    30    1
    26    25    26   ar
    27    26    27    1
    28    26    28   ar
    29     6     1   ar
    30    28    22   ar
    31    18    12   ar
    32    10    11    1
    33    30    31    1
@<TRIPOS>MOLECULE
*****
 31 33 0 0 0
SMALL
GASTEIGER

@<TRIPOS>ATOM
      1 C           2.8932    0.5569   18.7951 C.ar    1  UNL1        0.1042
      2 C           1.9611    1.7222   18.9480 C.ar    1  UNL1        0.0335
      3 C           0.6763    1.5606   19.7050 C.ar    1  UNL1        0.1261
      4 C           0.3234    0.2337   20.3091 C.ar    1  UNL1        0.0234
      5 C           1.2555   -0.9315   20.1562 C.ar    1  UNL1        0.0396
      6 C           2.5404   -0.7699   19.3992 C.ar    1  UNL1        0.1549
      7 S          -0.2558    2.7259   19.8579 S.O2    1  UNL1        0.0747
      8 O          -0.7030    2.1938   21.1871 O.2     1  UNL1       -0.1499
      9 O           0.1914    3.2580   18.5287 O.2     1  UNL1       -0.1499
     10 N          -1.1878    3.8912   20.0108 N.pl3   1  UNL1       -0.1989
     11 H          -0.8488    4.7518   20.3480 H       1  UNL1        0.1753
     12 C          -2.6365    3.7453   19.6500 C.ar    1  UNL1        0.1472
     13 C          -3.6459    3.4276   20.7131 C.ar    1  UNL1        0.0379
     14 C          -5.0945    3.2817   20.3523 C.ar    1  UNL1        0.0342
     15 C          -5.5337    3.4535   18.9284 C.ar    1  UNL1        0.1593
     16 F          -6.9824    3.3076   18.5676 F       1  UNL1       -0.2025
     17 C          -4.5244    3.7713   17.8653 C.ar    1  UNL1        0.1299
     18 N          -3.0758    3.9171   18.2261 N.ar    1  UNL1       -0.2256
     19 N           5.4629    0.8801   17.2812 N.1     1  UNL1       -0.1907
     20 C           4.1781    0.7185   18.0382 C.1     1  UNL1        0.1035
     21 O           3.4724   -1.9353   19.2463 O.3     1  UNL1       -0.4528
     22 C           4.2748   -2.4129   20.4202 C.ar    1  UNL1        0.1462
     23 C           3.7971   -2.1408   21.8159 C.ar    1  UNL1        0.0373
     24 C           4.5995   -2.6184   22.9897 C.ar    1  UNL1        0.0021
     25 C           5.8796   -3.3681   22.7680 C.ar    1  UNL1        0.0177
     26 C           6.3574   -3.6402   21.3724 C.ar    1  UNL1        0.0591
     27 CL          7.6375   -4.3900   21.1507 Cl      1  UNL1       -0.0824
     28 C           5.5550   -3.1626   20.1985 C.ar    1  UNL1        0.0486
     29 C           6.6820   -3.8458   23.9418 C.3     1  UNL1        0.1644
     30 O           6.0429   -3.9495   25.2949 O.3     1  UNL1       -0.3772
     31 H           5.8066   -3.0630   25.6098 H       1  UNL1        0.2109
@<TRIPOS>BOND
     1    19    20    3
     2    20     1    1
     3     1     2   ar
     4     2     3   ar
     5     3     7    1
     6     7     8    2
     7     7     9    2
     8     7    10    1
     9    10    12    1
    10    12    13   ar
    11    13    14   ar
    12    14    15   ar
    13    15    16    1
    14    15    17   ar
    15    17    18   ar
    16     3     4   ar
    17     4     5   ar
    18     5     6   ar
    19     6    21    1
    20    21    22    1
    21    22    23   ar
    22    23    24   ar
    23    24    25   ar
    24    25    29    1
    25    29    30    1
    26    25    26   ar
    27    26    27    1
    28    26    28   ar
    29     6     1   ar
    30    28    22   ar
    31    18    12   ar
    32    10    11    1
    33    30    31    1
@<TRIPOS>MOLECULE
*****
 31 33 0 0 0
SMALL
GASTEIGER

@<TRIPOS>ATOM
      1 C           7.4880   -1.8327   21.5504 C.ar    1  UNL1        0.1042
      2 C           6.3907   -1.2212   20.7307 C.ar    1  UNL1        0.0335
      3 C           5.5638   -2.0824   19.8226 C.ar    1  UNL1        0.1261
      4 C           5.8343   -3.5551   19.7342 C.ar    1  UNL1        0.0234
      5 C           6.9316   -4.1666   20.5539 C.ar    1  UNL1        0.0396
      6 C           7.7584   -3.3054   21.4620 C.ar    1  UNL1        0.1549
      7 S           4.4664   -1.4708   19.0029 S.O2    1  UNL1        0.0747
      8 O           4.9784   -0.1016   19.3393 O.2     1  UNL1       -0.1499
      9 O           3.9545   -2.8400   18.6666 O.2     1  UNL1       -0.1499
     10 N           3.3692   -0.8591   18.1833 N.pl3   1  UNL1       -0.1989
     11 H           3.3664   -0.9681   17.2049 H       1  UNL1        0.1753
     12 C           2.2760   -0.0815   18.8545 C.ar    1  UNL1        0.1472
     13 C           1.5435   -0.6724   20.0224 C.ar    1  UNL1        0.0379
     14 C           0.4505    0.1053   20.6935 C.ar    1  UNL1        0.0342
     15 C           0.0899    1.4739   20.1966 C.ar    1  UNL1        0.1593
     16 F          -1.0032    2.2516   20.8677 F       1  UNL1       -0.2025
     17 C           0.8224    2.0648   19.0286 C.ar    1  UNL1        0.1299
     18 N           1.9155    1.2872   18.3576 N.ar    1  UNL1       -0.2256
     19 N           9.1417   -0.1103   23.3666 N.1     1  UNL1       -0.1907
     20 C           8.3148   -0.9715   22.4585 C.1     1  UNL1        0.1035
     21 O           8.8558   -3.9171   22.2817 O.3     1  UNL1       -0.4528
     22 C           8.5331   -4.9683   23.3018 C.ar    1  UNL1        0.1462
     23 C           8.9397   -6.3927   23.0654 C.ar    1  UNL1        0.0373
     24 C           8.6170   -7.4439   24.0856 C.ar    1  UNL1        0.0021
     25 C           7.8877   -7.0708   25.3421 C.ar    1  UNL1        0.0177
     26 C           7.4811   -5.6465   25.5786 C.ar    1  UNL1        0.0591
     27 CL          6.7518   -5.2734   26.8351 Cl      1  UNL1       -0.0824
     28 C           7.8038   -4.5952   24.5584 C.ar    1  UNL1        0.0486
     29 C           7.5650   -8.1220   26.3623 C.3     1  UNL1        0.1644
     30 O           6.1972   -8.7369   26.3989 O.3     1  UNL1       -0.3772
     31 H           5.5462   -8.0627   26.6490 H       1  UNL1        0.2109
@<TRIPOS>BOND
     1    19    20    3
     2    20     1    1
     3     1     2   ar
     4     2     3   ar
     5     3     7    1
     6     7     8    2
     7     7     9    2
     8     7    10    1
     9    10    12    1
    10    12    13   ar
    11    13    14   ar
    12    14    15   ar
    13    15    16    1
    14    15    17   ar
    15    17    18   ar
    16     3     4   ar
    17     4     5   ar
    18     5     6   ar
    19     6    21    1
    20    21    22    1
    21    22    23   ar
    22    23    24   ar
    23    24    25   ar
    24    25    29    1
    25    29    30    1
    26    25    26   ar
    27    26    27    1
    28    26    28   ar
    29     6     1   ar
    30    28    22   ar
    31    18    12   ar
    32    10    11    1
    33    30    31    1
@<TRIPOS>MOLECULE
*****
 31 33 0 0 0
SMALL
GASTEIGER

@<TRIPOS>ATOM
      1 C          -7.3545  -20.1119   20.1602 C.ar    1  UNL1        0.1042
      2 C          -8.6270  -19.3907   20.4928 C.ar    1  UNL1        0.0335
      3 C          -8.6247  -18.3032   21.5258 C.ar    1  UNL1        0.1261
      4 C          -7.3500  -17.9369   22.2264 C.ar    1  UNL1        0.0234
      5 C          -6.0775  -18.6581   21.8938 C.ar    1  UNL1        0.0396
      6 C          -6.0798  -19.7456   20.8608 C.ar    1  UNL1        0.1549
      7 S          -9.8973  -17.5820   21.8584 S.O2    1  UNL1        0.0747
      8 O         -10.6660  -18.5433   21.0012 O.2     1  UNL1       -0.1499
      9 O          -9.1285  -16.6206   22.7156 O.2     1  UNL1       -0.1499
     10 N         -11.1698  -16.8608   22.1908 N.pl3   1  UNL1       -0.1989
     11 H         -11.3860  -16.0116   21.7421 H       1  UNL1        0.1753
     12 C         -12.1130  -17.4335   23.2070 C.ar    1  UNL1        0.1472
     13 C         -13.5919  -17.2371   23.0521 C.ar    1  UNL1        0.0379
     14 C         -14.5350  -17.8098   24.0683 C.ar    1  UNL1        0.0342
     15 C         -13.9991  -18.5789   25.2393 C.ar    1  UNL1        0.1593
     16 F         -14.9423  -19.1516   26.2555 F       1  UNL1       -0.2025
     17 C         -12.5201  -18.7753   25.3942 C.ar    1  UNL1        0.1299
     18 N         -11.5771  -18.2026   24.3780 N.ar    1  UNL1       -0.2256
     19 N          -7.3591  -22.2870   18.0940 N.1     1  UNL1       -0.1907
     20 C          -7.3568  -21.1995   19.1271 C.1     1  UNL1        0.1035
     21 O          -4.8072  -20.4668   20.5282 O.3     1  UNL1       -0.4528
     22 C          -3.5203  -19.7045   20.4166 C.ar    1  UNL1        0.1462
     23 C          -2.5791  -19.6467   21.5832 C.ar    1  UNL1        0.0373
     24 C          -1.2922  -18.8843   21.4716 C.ar    1  UNL1        0.0021
     25 C          -0.9463  -18.1798   20.1933 C.ar    1  UNL1        0.0177
     26 C          -1.8873  -18.2375   19.0267 C.ar    1  UNL1        0.0591
     27 CL         -1.5414  -17.5330   17.7485 Cl      1  UNL1       -0.0824
     28 C          -3.1744  -18.9999   19.1383 C.ar    1  UNL1        0.0486
     29 C           0.3407  -17.4174   20.0817 C.3     1  UNL1        0.1644
     30 O           1.5574  -17.8870   20.8229 O.3     1  UNL1       -0.3772
     31 H           1.4046  -17.8087   21.7776 H       1  UNL1        0.2109
@<TRIPOS>BOND
     1    19    20    3
     2    20     1    1
     3     1     2   ar
     4     2     3   ar
     5     3     7    1
     6     7     8    2
     7     7     9    2
     8     7    10    1
     9    10    12    1
    10    12    13   ar
    11    13    14   ar
    12    14    15   ar
    13    15    16    1
    14    15    17   ar
    15    17    18   ar
    16     3     4   ar
    17     4     5   ar
    18     5     6   ar
    19     6    21    1
    20    21    22    1
    21    22    23   ar
    22    23    24   ar
    23    24    25   ar
    24    25    29    1
    25    29    30    1
    26    25    26   ar
    27    26    27    1
    28    26    28   ar
    29     6     1   ar
    30    28    22   ar
    31    18    12   ar
    32    10    11    1
    33    30    31    1
