@<TRIPOS>MOLECULE
*****
 13 14 0 0 0
SMALL
GASTEIGER

@<TRIPOS>ATOM
      1 N          -9.6912  -18.5874   19.7400 N.pl3   1  UNL1       -0.3267
      2 C         -10.8802  -17.7932   20.1935 C.ar    1  UNL1        0.2237
      3 O         -11.7102  -16.8822   19.3385 O.2     1  UNL1       -0.3387
      4 N         -12.7909  -16.2965   20.1982 N.ar    1  UNL1       -0.0738
      5 C         -12.6288  -16.8456   21.5847 C.ar    1  UNL1        0.1451
      6 C         -11.4479  -17.7705   21.5818 C.ar    1  UNL1        0.0742
      7 H          -9.3932  -18.5359   18.8031 H       1  UNL1        0.1452
      8 H          -9.2089  -19.1601   20.3792 H       1  UNL1        0.1452
      9 C         -10.9263  -18.5381   22.7602 C.ar    1  UNL1        0.0129
     10 C         -10.7400  -20.0248   22.8316 C.ar    1  UNL1        0.0077
     11 C         -10.1980  -20.3593   24.1897 C.ar    1  UNL1        0.0355
     12 S         -10.0494  -19.0794   24.9577 S.2     1  UNL1       -0.0859
     13 C         -10.4995  -17.9538   24.0742 C.ar    1  UNL1        0.0356
@<TRIPOS>BOND
     1     1     2    1
     2     2     3   ar
     3     3     4   ar
     4     4     5   ar
     5     5     6   ar
     6     6     9    1
     7     9    10   ar
     8    10    11   ar
     9    11    12   ar
    10    12    13   ar
    11     6     2   ar
    12    13     9   ar
    13     1     7    1
    14     1     8    1
@<TRIPOS>MOLECULE
*****
 13 14 0 0 0
SMALL
GASTEIGER

@<TRIPOS>ATOM
      1 N          -7.8226  -14.3497   23.9784 N.pl3   1  UNL1       -0.3267
      2 C          -7.2953  -15.6399   23.4241 C.ar    1  UNL1        0.2237
      3 O          -5.8587  -16.0711   23.4084 O.2     1  UNL1       -0.3387
      4 N          -5.7875  -17.4232   22.7627 N.ar    1  UNL1       -0.0738
      5 C          -7.1802  -17.8276   22.3794 C.ar    1  UNL1        0.1451
      6 C          -8.1120  -16.7255   22.7881 C.ar    1  UNL1        0.0742
      7 H          -7.2041  -13.6964   24.3782 H       1  UNL1        0.1452
      8 H          -8.7873  -14.1562   23.9424 H       1  UNL1        0.1452
      9 C          -9.5995  -16.7115   22.5948 C.ar    1  UNL1        0.0129
     10 C         -10.6156  -17.2969   23.5301 C.ar    1  UNL1        0.0077
     11 C         -11.9760  -17.0569   22.9457 C.ar    1  UNL1        0.0355
     12 S         -11.8007  -16.3231   21.6492 S.2     1  UNL1       -0.0859
     13 C         -10.3318  -16.1097   21.4323 C.ar    1  UNL1        0.0356
@<TRIPOS>BOND
     1     1     2    1
     2     2     3   ar
     3     3     4   ar
     4     4     5   ar
     5     5     6   ar
     6     6     9    1
     7     9    10   ar
     8    10    11   ar
     9    11    12   ar
    10    12    13   ar
    11     6     2   ar
    12    13     9   ar
    13     1     7    1
    14     1     8    1
@<TRIPOS>MOLECULE
*****
 13 14 0 0 0
SMALL
GASTEIGER

@<TRIPOS>ATOM
      1 N          -7.7042  -17.2638   21.5303 N.pl3   1  UNL1       -0.3267
      2 C          -7.6793  -16.3989   22.7557 C.ar    1  UNL1        0.2237
      3 O          -6.6255  -15.3888   23.1007 O.2     1  UNL1       -0.3387
      4 N          -6.9988  -14.7579   24.4094 N.ar    1  UNL1       -0.0738
      5 C          -8.2834  -15.3781   24.8731 C.ar    1  UNL1        0.1451
      6 C          -8.7040  -16.3923   23.8511 C.ar    1  UNL1        0.0742
      7 H          -6.9821  -17.1951   20.8646 H       1  UNL1        0.1452
      8 H          -8.4425  -17.9001   21.3918 H       1  UNL1        0.1452
      9 C          -9.9335  -17.2493   23.9135 C.ar    1  UNL1        0.0129
     10 C         -10.1357  -18.4371   24.8070 C.ar    1  UNL1        0.0077
     11 C         -11.5037  -18.9910   24.5392 C.ar    1  UNL1        0.0355
     12 S         -12.1470  -18.1455   23.4802 S.2     1  UNL1       -0.0859
     13 C         -11.1765  -17.0691   23.0935 C.ar    1  UNL1        0.0356
@<TRIPOS>BOND
     1     1     2    1
     2     2     3   ar
     3     3     4   ar
     4     4     5   ar
     5     5     6   ar
     6     6     9    1
     7     9    10   ar
     8    10    11   ar
     9    11    12   ar
    10    12    13   ar
    11     6     2   ar
    12    13     9   ar
    13     1     7    1
    14     1     8    1
@<TRIPOS>MOLECULE
*****
 13 14 0 0 0
SMALL
GASTEIGER

@<TRIPOS>ATOM
      1 N          -3.6125  -17.0426   18.5915 N.pl3   1  UNL1       -0.3267
      2 C          -2.5744  -17.7390   19.4206 C.ar    1  UNL1        0.2237
      3 O          -1.1008  -17.4594   19.4056 O.2     1  UNL1       -0.3387
      4 N          -0.4433  -18.3848   20.3861 N.ar    1  UNL1       -0.0738
      5 C          -1.5106  -19.2364   21.0071 C.ar    1  UNL1        0.1451
      6 C          -2.8276  -18.8372   20.4104 C.ar    1  UNL1        0.0742
      7 H          -3.3465  -16.3300   17.9664 H       1  UNL1        0.1452
      8 H          -4.5598  -17.2981   18.6724 H       1  UNL1        0.1452
      9 C          -4.1635  -19.4320   20.7448 C.ar    1  UNL1        0.0129
     10 C          -4.8201  -20.5793   20.0360 C.ar    1  UNL1        0.0077
     11 C          -6.1396  -20.8403   20.6998 C.ar    1  UNL1        0.0355
     12 S          -6.2986  -19.8542   21.8190 S.2     1  UNL1       -0.0859
     13 C          -5.0772  -18.9838   21.8468 C.ar    1  UNL1        0.0356
@<TRIPOS>BOND
     1     1     2    1
     2     2     3   ar
     3     3     4   ar
     4     4     5   ar
     5     5     6   ar
     6     6     9    1
     7     9    10   ar
     8    10    11   ar
     9    11    12   ar
    10    12    13   ar
    11     6     2   ar
    12    13     9   ar
    13     1     7    1
    14     1     8    1
@<TRIPOS>MOLECULE
*****
 13 14 0 0 0
SMALL
GASTEIGER

@<TRIPOS>ATOM
      1 N         -10.3429  -19.1701   25.3169 N.pl3   1  UNL1       -0.3267
      2 C         -10.9883  -18.2968   24.2820 C.ar    1  UNL1        0.2237
      3 O         -12.3433  -18.5050   23.6733 O.2     1  UNL1       -0.3387
      4 N         -12.5844  -17.3989   22.6893 N.ar    1  UNL1       -0.0738
      5 C         -11.3783  -16.5070   22.6898 C.ar    1  UNL1        0.1451
      6 C         -10.3919  -17.0620   23.6742 C.ar    1  UNL1        0.0742
      7 H         -10.8167  -19.9636   25.6562 H       1  UNL1        0.1452
      8 H          -9.4456  -18.9498   25.6568 H       1  UNL1        0.1452
      9 C          -9.0454  -16.4836   23.9944 C.ar    1  UNL1        0.0129
     10 C          -8.6840  -15.7275   25.2385 C.ar    1  UNL1        0.0077
     11 C          -7.2392  -15.3364   25.1398 C.ar    1  UNL1        0.0355
     12 S          -6.7077  -15.8508   23.8348 S.2     1  UNL1       -0.0859
     13 C          -7.8241  -16.5598   23.1269 C.ar    1  UNL1        0.0356
@<TRIPOS>BOND
     1     1     2    1
     2     2     3   ar
     3     3     4   ar
     4     4     5   ar
     5     5     6   ar
     6     6     9    1
     7     9    10   ar
     8    10    11   ar
     9    11    12   ar
    10    12    13   ar
    11     6     2   ar
    12    13     9   ar
    13     1     7    1
    14     1     8    1
@<TRIPOS>MOLECULE
*****
 13 14 0 0 0
SMALL
GASTEIGER

@<TRIPOS>ATOM
      1 N         -12.5983   -7.6811   16.6404 N.pl3   1  UNL1       -0.3267
      2 C         -11.3377   -7.6158   17.4507 C.ar    1  UNL1        0.2237
      3 O         -10.1346   -8.4956   17.2821 O.2     1  UNL1       -0.3387
      4 N          -9.1122   -8.0828   18.2991 N.ar    1  UNL1       -0.0738
      5 C          -9.6834   -6.9479   19.0963 C.ar    1  UNL1        0.1451
      6 C         -11.0589   -6.6593   18.5720 C.ar    1  UNL1        0.0742
      7 H         -12.6873   -8.3476   15.9213 H       1  UNL1        0.1452
      8 H         -13.3367   -7.0574   16.8276 H       1  UNL1        0.1452
      9 C         -11.9917   -5.6000   19.0798 C.ar    1  UNL1        0.0129
     10 C         -13.3162   -5.8360   19.7432 C.ar    1  UNL1        0.0077
     11 C         -13.9069   -4.5007   20.0868 C.ar    1  UNL1        0.0355
     12 S         -12.9474   -3.4394   19.6359 S.2     1  UNL1       -0.0859
     13 C         -11.7637   -4.1189   19.0135 C.ar    1  UNL1        0.0356
@<TRIPOS>BOND
     1     1     2    1
     2     2     3   ar
     3     3     4   ar
     4     4     5   ar
     5     5     6   ar
     6     6     9    1
     7     9    10   ar
     8    10    11   ar
     9    11    12   ar
    10    12    13   ar
    11     6     2   ar
    12    13     9   ar
    13     1     7    1
    14     1     8    1
@<TRIPOS>MOLECULE
*****
 13 14 0 0 0
SMALL
GASTEIGER

@<TRIPOS>ATOM
      1 N          -9.8359   -7.9341   19.1166 N.pl3   1  UNL1       -0.3267
      2 C         -10.1485   -6.4684   19.0526 C.ar    1  UNL1        0.2237
      3 O          -9.1547   -5.3496   19.1553 O.2     1  UNL1       -0.3387
      4 N          -9.9018   -4.0539   19.0408 N.ar    1  UNL1       -0.0738
      5 C         -11.3574   -4.3720   18.8672 C.ar    1  UNL1        0.1451
      6 C         -11.5098   -5.8643   18.8745 C.ar    1  UNL1        0.0742
      7 H          -8.9059   -8.2343   19.2363 H       1  UNL1        0.1452
      8 H         -10.5606   -8.5959   19.0390 H       1  UNL1        0.1452
      9 C         -12.7976   -6.6197   18.7293 C.ar    1  UNL1        0.0129
     10 C         -14.0797   -6.3231   19.4491 C.ar    1  UNL1        0.0077
     11 C         -15.1038   -7.3244   19.0034 C.ar    1  UNL1        0.0355
     12 S         -14.4547   -8.2398   18.0081 S.2     1  UNL1       -0.0859
     13 C         -13.0293   -7.8042   17.8387 C.ar    1  UNL1        0.0356
@<TRIPOS>BOND
     1     1     2    1
     2     2     3   ar
     3     3     4   ar
     4     4     5   ar
     5     5     6   ar
     6     6     9    1
     7     9    10   ar
     8    10    11   ar
     9    11    12   ar
    10    12    13   ar
    11     6     2   ar
    12    13     9   ar
    13     1     7    1
    14     1     8    1
@<TRIPOS>MOLECULE
*****
 13 14 0 0 0
SMALL
GASTEIGER

@<TRIPOS>ATOM
      1 N         -10.3382  -19.7603   20.0772 N.pl3   1  UNL1       -0.3267
      2 C          -9.4051  -18.8371   20.8030 C.ar    1  UNL1        0.2237
      3 O          -8.0070  -18.4893   20.3854 O.2     1  UNL1       -0.3387
      4 N          -7.4440  -17.5368   21.3982 N.ar    1  UNL1       -0.0738
      5 C          -8.4942  -17.2958   22.4418 C.ar    1  UNL1        0.1451
      6 C          -9.7061  -18.0995   22.0740 C.ar    1  UNL1        0.0742
      7 H         -10.0475  -20.2003   19.2458 H       1  UNL1        0.1452
      8 H         -11.2413  -19.9263   20.4322 H       1  UNL1        0.1452
      9 C         -10.9933  -18.1556   22.8422 C.ar    1  UNL1        0.0129
     10 C         -11.1923  -18.7974   24.1833 C.ar    1  UNL1        0.0077
     11 C         -12.6293  -18.6182   24.5742 C.ar    1  UNL1        0.0355
     12 S         -13.3185  -17.8657   23.4747 S.2     1  UNL1       -0.0859
     13 C         -12.3073  -17.5798   22.4043 C.ar    1  UNL1        0.0356
@<TRIPOS>BOND
     1     1     2    1
     2     2     3   ar
     3     3     4   ar
     4     4     5   ar
     5     5     6   ar
     6     6     9    1
     7     9    10   ar
     8    10    11   ar
     9    11    12   ar
    10    12    13   ar
    11     6     2   ar
    12    13     9   ar
    13     1     7    1
    14     1     8    1
@<TRIPOS>MOLECULE
*****
 13 14 0 0 0
SMALL
GASTEIGER

@<TRIPOS>ATOM
      1 N         -10.9200  -15.7281   22.0181 N.pl3   1  UNL1       -0.3267
      2 C          -9.9325  -16.7830   21.6155 C.ar    1  UNL1        0.2237
      3 O         -10.0372  -17.6767   20.4154 O.2     1  UNL1       -0.3387
      4 N          -8.8364  -18.5755   20.4005 N.ar    1  UNL1       -0.0738
      5 C          -7.9894  -18.2372   21.5914 C.ar    1  UNL1        0.1451
      6 C          -8.6669  -17.1294   22.3423 C.ar    1  UNL1        0.0742
      7 H         -11.7255  -15.5742   21.4733 H       1  UNL1        0.1452
      8 H         -10.7627  -15.1897   22.8271 H       1  UNL1        0.1452
      9 C          -8.1666  -16.4817   23.5993 C.ar    1  UNL1        0.0129
     10 C          -8.9181  -16.3693   24.8926 C.ar    1  UNL1        0.0077
     11 C          -8.0429  -15.6509   25.8764 C.ar    1  UNL1        0.0355
     12 S          -6.7504  -15.3192   25.1912 S.2     1  UNL1       -0.0859
     13 C          -6.8269  -15.8327   23.7838 C.ar    1  UNL1        0.0356
@<TRIPOS>BOND
     1     1     2    1
     2     2     3   ar
     3     3     4   ar
     4     4     5   ar
     5     5     6   ar
     6     6     9    1
     7     9    10   ar
     8    10    11   ar
     9    11    12   ar
    10    12    13   ar
    11     6     2   ar
    12    13     9   ar
    13     1     7    1
    14     1     8    1
