@<TRIPOS>MOLECULE
*****
 19 20 0 0 0
SMALL
GASTEIGER

@<TRIPOS>ATOM
      1 C          -7.8453  -15.9645   24.5374 C.2     1  UNL1        0.1535
      2 N          -9.1253  -16.7308   24.6934 N.2     1  UNL1       -0.2467
      3 C          -9.8776  -16.6453   23.3985 C.3     1  UNL1        0.1778
      4 C         -11.1995  -17.2075   22.9667 C.3     1  UNL1        0.2155
      5 F         -12.0145  -18.0267   23.9231 F       1  UNL1       -0.2324
      6 C         -11.7063  -16.9506   21.5785 C.3     1  UNL1        0.1746
      7 O         -13.0282  -17.5128   21.1467 O.3     1  UNL1       -0.3792
      8 C         -10.8913  -16.1314   20.6221 C.3     1  UNL1        0.1749
      9 O          -9.5694  -15.5692   21.0540 O.3     1  UNL1       -0.3402
     10 C          -9.0625  -15.8261   22.4422 C.3     1  UNL1        0.1941
     11 S          -7.8065  -15.4054   23.1460 S.3     1  UNL1       -0.0497
     12 H         -13.4216  -18.0128   21.8789 H       1  UNL1        0.2106
     13 C         -11.3981  -15.8744   19.2340 C.3     1  UNL1        0.1693
     14 O         -12.8033  -15.3926   19.0258 O.3     1  UNL1       -0.3794
     15 H         -13.4261  -16.0835   19.3006 H       1  UNL1        0.2105
     16 N          -6.7895  -15.7882   25.5882 N.pl3   1  UNL1       -0.3135
     17 H          -5.8619  -15.5885   25.3254 H       1  UNL1        0.1487
     18 C          -8.2792  -15.1128   27.6067 C.3     1  UNL1        0.0230
     19 C          -7.1468  -15.9164   27.0393 C.3     1  UNL1        0.0887
@<TRIPOS>BOND
     1    18    19    1
     2    19    16    1
     3    16     1    1
     4     1     2    2
     5     3     2    1
     6     3     4    1
     7     4     5    1
     8     4     6    1
     9     6     7    1
    10     6     8    1
    11     8    13    1
    12    13    14    1
    13     8     9    1
    14    10     9    1
    15    10    11    1
    16    11     1    1
    17    10     3    1
    18    16    17    1
    19     7    12    1
    20    14    15    1
@<TRIPOS>MOLECULE
*****
 19 20 0 0 0
SMALL
GASTEIGER

@<TRIPOS>ATOM
      1 C          -7.4270  -15.5575   23.0588 C.2     1  UNL1        0.1535
      2 N          -8.2237  -15.5076   21.7888 N.2     1  UNL1       -0.2467
      3 C          -9.5585  -16.1385   22.0539 C.3     1  UNL1        0.1778
      4 C         -10.7519  -16.3693   21.1749 C.3     1  UNL1        0.2155
      5 F         -10.7236  -15.9295   19.7411 F       1  UNL1       -0.2324
      6 C         -11.9736  -17.0399   21.7298 C.3     1  UNL1        0.1746
      7 O         -13.1669  -17.2707   20.8508 O.3     1  UNL1       -0.3792
      8 C         -12.0019  -17.4797   23.1636 C.3     1  UNL1        0.1749
      9 O         -10.8084  -17.2489   24.0425 O.3     1  UNL1       -0.3402
     10 C          -9.5868  -16.5783   23.4877 C.3     1  UNL1        0.1941
     11 S          -8.2695  -16.2192   24.1087 S.3     1  UNL1       -0.0497
     12 H         -12.9842  -16.9296   19.9614 H       1  UNL1        0.2106
     13 C         -13.2235  -18.1503   23.7184 C.3     1  UNL1        0.1693
     14 O         -13.2288  -18.6474   25.1336 O.3     1  UNL1       -0.3794
     15 H         -12.5905  -19.3722   25.2242 H       1  UNL1        0.2105
     16 N          -6.0327  -15.0371   23.2459 N.pl3   1  UNL1       -0.3135
     17 H          -5.7126  -14.2806   22.7031 H       1  UNL1        0.1487
     18 C          -5.1903  -15.2381   25.6954 C.3     1  UNL1        0.0230
     19 C          -5.1261  -15.6691   24.2601 C.3     1  UNL1        0.0887
@<TRIPOS>BOND
     1    18    19    1
     2    19    16    1
     3    16     1    1
     4     1     2    2
     5     3     2    1
     6     3     4    1
     7     4     5    1
     8     4     6    1
     9     6     7    1
    10     6     8    1
    11     8    13    1
    12    13    14    1
    13     8     9    1
    14    10     9    1
    15    10    11    1
    16    11     1    1
    17    10     3    1
    18    16    17    1
    19     7    12    1
    20    14    15    1
@<TRIPOS>MOLECULE
*****
 19 20 0 0 0
SMALL
GASTEIGER

@<TRIPOS>ATOM
      1 C          -9.4477  -16.7254   22.1115 C.2     1  UNL1        0.1535
      2 N          -9.3095  -17.8378   21.1148 N.2     1  UNL1       -0.2467
      3 C          -7.9228  -18.3973   21.2339 C.3     1  UNL1        0.1778
      4 C          -7.2219  -19.5058   20.5060 C.3     1  UNL1        0.2155
      5 F          -7.9407  -20.2724   19.4356 F       1  UNL1       -0.2324
      6 C          -5.8020  -19.8477   20.8484 C.3     1  UNL1        0.1746
      7 O          -5.1010  -20.9562   20.1205 O.3     1  UNL1       -0.3792
      8 C          -5.0832  -19.0811   21.9187 C.3     1  UNL1        0.1749
      9 O          -5.7842  -17.9726   22.6467 O.3     1  UNL1       -0.3402
     10 C          -7.2040  -17.6307   22.3042 C.3     1  UNL1        0.1941
     11 S          -8.1464  -16.5975   22.8466 S.3     1  UNL1       -0.0497
     12 H          -5.7027  -21.3446   19.4663 H       1  UNL1        0.2106
     13 C          -3.6634  -19.4230   22.2612 C.3     1  UNL1        0.1693
     14 O          -2.7977  -20.1245   21.2570 O.3     1  UNL1       -0.3794
     15 H          -3.1453  -21.0159   21.0971 H       1  UNL1        0.2105
     16 N         -10.6721  -15.8881   22.3340 N.pl3   1  UNL1       -0.3135
     17 H         -10.5901  -14.9932   22.7362 H       1  UNL1        0.1487
     18 C         -12.7417  -17.3735   22.8443 C.3     1  UNL1        0.0230
     19 C         -12.0216  -16.4141   21.9438 C.3     1  UNL1        0.0887
@<TRIPOS>BOND
     1    18    19    1
     2    19    16    1
     3    16     1    1
     4     1     2    2
     5     3     2    1
     6     3     4    1
     7     4     5    1
     8     4     6    1
     9     6     7    1
    10     6     8    1
    11     8    13    1
    12    13    14    1
    13     8     9    1
    14    10     9    1
    15    10    11    1
    16    11     1    1
    17    10     3    1
    18    16    17    1
    19     7    12    1
    20    14    15    1
@<TRIPOS>MOLECULE
*****
 19 20 0 0 0
SMALL
GASTEIGER

@<TRIPOS>ATOM
      1 C          -5.6714  -18.8923   21.9137 C.2     1  UNL1        0.1535
      2 N          -6.1805  -17.6662   22.6118 N.2     1  UNL1       -0.2467
      3 C          -7.6475  -17.5441   22.3237 C.3     1  UNL1        0.1778
      4 C          -8.6726  -16.5338   22.7461 C.3     1  UNL1        0.2155
      5 F          -8.2750  -15.3831   23.6223 F       1  UNL1       -0.2324
      6 C         -10.0955  -16.6742   22.2922 C.3     1  UNL1        0.1746
      7 O         -11.1206  -15.6639   22.7145 O.3     1  UNL1       -0.3792
      8 C         -10.4931  -17.8249   21.4160 C.3     1  UNL1        0.1749
      9 O          -9.4678  -18.8352   20.9936 O.3     1  UNL1       -0.3402
     10 C          -8.0451  -18.6948   21.4475 C.3     1  UNL1        0.1941
     11 S          -6.8238  -19.5280   21.1941 S.3     1  UNL1       -0.0497
     12 H         -10.7008  -14.9917   23.2737 H       1  UNL1        0.2106
     13 C         -11.9158  -17.9654   20.9621 C.3     1  UNL1        0.1693
     14 O         -12.6924  -16.7525   20.5426 O.3     1  UNL1       -0.3794
     15 H         -12.8229  -16.1714   21.3082 H       1  UNL1        0.2105
     16 N          -4.2581  -19.3945   21.9319 N.pl3   1  UNL1       -0.3135
     17 H          -3.7211  -19.3237   22.7540 H       1  UNL1        0.1487
     18 C          -3.3476  -19.1418   19.5118 C.3     1  UNL1        0.0230
     19 C          -3.6630  -20.0046   20.6976 C.3     1  UNL1        0.0887
@<TRIPOS>BOND
     1    18    19    1
     2    19    16    1
     3    16     1    1
     4     1     2    2
     5     3     2    1
     6     3     4    1
     7     4     5    1
     8     4     6    1
     9     6     7    1
    10     6     8    1
    11     8    13    1
    12    13    14    1
    13     8     9    1
    14    10     9    1
    15    10    11    1
    16    11     1    1
    17    10     3    1
    18    16    17    1
    19     7    12    1
    20    14    15    1
@<TRIPOS>MOLECULE
*****
 19 20 0 0 0
SMALL
GASTEIGER

@<TRIPOS>ATOM
      1 C          -5.7809  -19.3282   20.4476 C.2     1  UNL1        0.1535
      2 N          -7.0609  -18.9590   19.7582 N.2     1  UNL1       -0.2467
      3 C          -8.1718  -19.0538   20.7617 C.3     1  UNL1        0.1778
      4 C          -9.6471  -18.8059   20.6521 C.3     1  UNL1        0.2155
      5 F         -10.2406  -18.3781   19.3426 F       1  UNL1       -0.2324
      6 C         -10.5290  -18.9857   21.8522 C.3     1  UNL1        0.1746
      7 O         -12.0043  -18.7377   21.7426 O.3     1  UNL1       -0.3792
      8 C          -9.9356  -19.4135   23.1617 C.3     1  UNL1        0.1749
      9 O          -8.4602  -19.6614   23.2712 O.3     1  UNL1       -0.3402
     10 C          -7.5784  -19.4816   22.0712 C.3     1  UNL1        0.1941
     11 S          -6.1007  -19.6512   21.8770 S.3     1  UNL1       -0.0497
     12 H         -12.2208  -18.4704   20.8357 H       1  UNL1        0.2106
     13 C         -10.8174  -19.5933   24.3617 C.3     1  UNL1        0.1693
     14 O         -10.3261  -20.3766   25.5428 O.3     1  UNL1       -0.3794
     15 H         -10.2072  -21.3050   25.2882 H       1  UNL1        0.2105
     16 N          -4.4200  -19.3676   19.8180 N.pl3   1  UNL1       -0.3135
     17 H          -4.2421  -18.8534   18.9974 H       1  UNL1        0.1487
     18 C          -2.3035  -19.5363   21.3153 C.3     1  UNL1        0.0230
     19 C          -3.3300  -20.1902   20.4385 C.3     1  UNL1        0.0887
@<TRIPOS>BOND
     1    18    19    1
     2    19    16    1
     3    16     1    1
     4     1     2    2
     5     3     2    1
     6     3     4    1
     7     4     5    1
     8     4     6    1
     9     6     7    1
    10     6     8    1
    11     8    13    1
    12    13    14    1
    13     8     9    1
    14    10     9    1
    15    10    11    1
    16    11     1    1
    17    10     3    1
    18    16    17    1
    19     7    12    1
    20    14    15    1
@<TRIPOS>MOLECULE
*****
 19 20 0 0 0
SMALL
GASTEIGER

@<TRIPOS>ATOM
      1 C          -7.6803  -19.2355   21.4458 C.2     1  UNL1        0.1535
      2 N          -6.7038  -18.9460   22.5470 N.2     1  UNL1       -0.2467
      3 C          -5.3518  -18.7488   21.9278 C.3     1  UNL1        0.1778
      4 C          -4.0107  -18.4382   22.5234 C.3     1  UNL1        0.2155
      5 F          -3.8697  -18.2705   24.0073 F       1  UNL1       -0.2324
      6 C          -2.8104  -18.2954   21.6351 C.3     1  UNL1        0.1746
      7 O          -1.4693  -17.9848   22.2308 O.3     1  UNL1       -0.3792
      8 C          -2.9514  -18.4631   20.1512 C.3     1  UNL1        0.1749
      9 O          -4.2926  -18.7737   19.5556 O.3     1  UNL1       -0.3402
     10 C          -5.4928  -18.9165   20.4439 C.3     1  UNL1        0.1941
     11 S          -6.9318  -19.2173   20.1460 S.3     1  UNL1       -0.0497
     12 H          -1.5530  -17.9091   23.1942 H       1  UNL1        0.2106
     13 C          -1.7512  -18.3202   19.2629 C.3     1  UNL1        0.1693
     14 O          -0.4026  -18.7637   19.7473 O.3     1  UNL1       -0.3794
     15 H          -0.1242  -18.2022   20.4877 H       1  UNL1        0.2105
     16 N          -9.1475  -19.4973   21.6148 N.pl3   1  UNL1       -0.3135
     17 H          -9.6892  -19.7800   20.8429 H       1  UNL1        0.1487
     18 C          -9.6082  -20.3792   24.0148 C.3     1  UNL1        0.0230
     19 C          -9.7895  -19.3284   22.9599 C.3     1  UNL1        0.0887
@<TRIPOS>BOND
     1    18    19    1
     2    19    16    1
     3    16     1    1
     4     1     2    2
     5     3     2    1
     6     3     4    1
     7     4     5    1
     8     4     6    1
     9     6     7    1
    10     6     8    1
    11     8    13    1
    12    13    14    1
    13     8     9    1
    14    10     9    1
    15    10    11    1
    16    11     1    1
    17    10     3    1
    18    16    17    1
    19     7    12    1
    20    14    15    1
@<TRIPOS>MOLECULE
*****
 19 20 0 0 0
SMALL
GASTEIGER

@<TRIPOS>ATOM
      1 C          -8.7877  -18.3768   21.8209 C.2     1  UNL1        0.1535
      2 N          -8.0275  -19.4547   21.1067 N.2     1  UNL1       -0.2467
      3 C          -6.5698  -19.2730   21.4103 C.3     1  UNL1        0.1778
      4 C          -5.3525  -20.0376   20.9821 C.3     1  UNL1        0.2155
      5 F          -5.4932  -21.2278   20.0802 F       1  UNL1       -0.2324
      6 C          -3.9943  -19.6119   21.4558 C.3     1  UNL1        0.1746
      7 O          -2.7770  -20.3765   21.0276 O.3     1  UNL1       -0.3792
      8 C          -3.8536  -18.4216   22.3578 C.3     1  UNL1        0.1749
      9 O          -5.0711  -17.6570   22.7860 O.3     1  UNL1       -0.3402
     10 C          -6.4291  -18.0827   22.3123 C.3     1  UNL1        0.1941
     11 S          -7.7999  -17.5288   22.5660 S.3     1  UNL1       -0.0497
     12 H          -3.0421  -21.1101   20.4511 H       1  UNL1        0.2106
     13 C          -2.4956  -17.9959   22.8315 C.3     1  UNL1        0.1693
     14 O          -1.2744  -18.3776   22.0485 O.3     1  UNL1       -0.3794
     15 H          -1.1612  -19.3406   22.0752 H       1  UNL1        0.2105
     16 N         -10.2747  -18.1811   21.7946 N.pl3   1  UNL1       -0.3135
     17 H         -10.7965  -18.4779   21.0143 H       1  UNL1        0.1487
     18 C         -12.2584  -18.0970   23.4702 C.3     1  UNL1        0.0230
     19 C         -10.9665  -17.5332   22.9571 C.3     1  UNL1        0.0887
@<TRIPOS>BOND
     1    18    19    1
     2    19    16    1
     3    16     1    1
     4     1     2    2
     5     3     2    1
     6     3     4    1
     7     4     5    1
     8     4     6    1
     9     6     7    1
    10     6     8    1
    11     8    13    1
    12    13    14    1
    13     8     9    1
    14    10     9    1
    15    10    11    1
    16    11     1    1
    17    10     3    1
    18    16    17    1
    19     7    12    1
    20    14    15    1
@<TRIPOS>MOLECULE
*****
 19 20 0 0 0
SMALL
GASTEIGER

@<TRIPOS>ATOM
      1 C          -7.0082  -15.8355   24.2123 C.2     1  UNL1        0.1535
      2 N          -7.4828  -16.9903   23.3811 N.2     1  UNL1       -0.2467
      3 C          -6.2802  -17.6475   22.7710 C.3     1  UNL1        0.1778
      4 C          -6.1368  -18.8309   21.8606 C.3     1  UNL1        0.2155
      5 F          -7.3545  -19.5797   21.4063 F       1  UNL1       -0.2324
      6 C          -4.7755  -19.2656   21.4045 C.3     1  UNL1        0.1746
      7 O          -4.6320  -20.4490   20.4941 O.3     1  UNL1       -0.3792
      8 C          -3.5577  -18.5168   21.8588 C.3     1  UNL1        0.1749
      9 O          -3.7012  -17.3334   22.7692 O.3     1  UNL1       -0.3402
     10 C          -5.0624  -16.8987   23.2253 C.3     1  UNL1        0.1941
     11 S          -5.5124  -15.7788   24.1161 S.3     1  UNL1       -0.0497
     12 H          -5.5089  -20.8147   20.2985 H       1  UNL1        0.2106
     13 C          -2.1965  -18.9515   21.4026 C.3     1  UNL1        0.1693
     14 O          -1.8263  -20.4049   21.4259 O.3     1  UNL1       -0.3794
     15 H          -1.7970  -20.7164   22.3440 H       1  UNL1        0.2105
     16 N          -7.8770  -14.9012   25.0013 N.pl3   1  UNL1       -0.3135
     17 H          -8.0315  -13.9835   24.6803 H       1  UNL1        0.1487
     18 C          -7.6542  -15.8944   27.3917 C.3     1  UNL1        0.0230
     19 C          -8.5103  -15.3653   26.2794 C.3     1  UNL1        0.0887
@<TRIPOS>BOND
     1    18    19    1
     2    19    16    1
     3    16     1    1
     4     1     2    2
     5     3     2    1
     6     3     4    1
     7     4     5    1
     8     4     6    1
     9     6     7    1
    10     6     8    1
    11     8    13    1
    12    13    14    1
    13     8     9    1
    14    10     9    1
    15    10    11    1
    16    11     1    1
    17    10     3    1
    18    16    17    1
    19     7    12    1
    20    14    15    1
@<TRIPOS>MOLECULE
*****
 19 20 0 0 0
SMALL
GASTEIGER

@<TRIPOS>ATOM
      1 C          -7.8704  -15.5899   24.5221 C.2     1  UNL1        0.1535
      2 N          -9.3516  -15.4951   24.3056 N.2     1  UNL1       -0.2467
      3 C          -9.7035  -16.3518   23.1257 C.3     1  UNL1        0.1778
      4 C         -11.0114  -16.6441   22.4520 C.3     1  UNL1        0.2155
      5 F         -12.2752  -16.0199   22.9648 F       1  UNL1       -0.2324
      6 C         -11.0555  -17.5607   21.2653 C.3     1  UNL1        0.1746
      7 O         -12.3633  -17.8530   20.5916 O.3     1  UNL1       -0.3792
      8 C          -9.7916  -18.1849   20.7524 C.3     1  UNL1        0.1749
      9 O          -8.4837  -17.8925   21.4262 O.3     1  UNL1       -0.3402
     10 C          -8.4396  -16.9760   22.6128 C.3     1  UNL1        0.1941
     11 S          -7.3067  -16.5051   23.4758 S.3     1  UNL1       -0.0497
     12 H         -13.0746  -17.3737   21.0446 H       1  UNL1        0.2106
     13 C          -9.8356  -19.1014   19.5659 C.3     1  UNL1        0.1693
     14 O          -8.5813  -19.3935   18.7968 O.3     1  UNL1       -0.3794
     15 H          -8.2712  -18.5826   18.3641 H       1  UNL1        0.2105
     16 N          -7.0898  -14.8919   25.5961 N.pl3   1  UNL1       -0.3135
     17 H          -6.6534  -14.0301   25.4064 H       1  UNL1        0.1487
     18 C          -8.1474  -16.2219   27.5615 C.3     1  UNL1        0.0230
     19 C          -6.9742  -15.5071   26.9592 C.3     1  UNL1        0.0887
@<TRIPOS>BOND
     1    18    19    1
     2    19    16    1
     3    16     1    1
     4     1     2    2
     5     3     2    1
     6     3     4    1
     7     4     5    1
     8     4     6    1
     9     6     7    1
    10     6     8    1
    11     8    13    1
    12    13    14    1
    13     8     9    1
    14    10     9    1
    15    10    11    1
    16    11     1    1
    17    10     3    1
    18    16    17    1
    19     7    12    1
    20    14    15    1
