@<TRIPOS>MOLECULE
*****
 34 37 0 0 0
SMALL
GASTEIGER

@<TRIPOS>ATOM
      1 C          -7.5241  -19.7901   19.7930 C.2     1  UNL1        0.2470
      2 O          -7.5144  -21.0548   18.9864 O.2     1  UNL1       -0.2701
      3 N          -8.7941  -19.0064   19.9438 N.am    1  UNL1       -0.3008
      4 H          -8.8005  -18.1764   20.4732 H       1  UNL1        0.1497
      5 C          -7.0750  -19.3512   22.9954 C.3     1  UNL1        0.0502
      6 C          -6.0573  -19.1074   21.9208 C.ar    1  UNL1        0.0418
      7 C          -6.2637  -19.3092   20.4489 C.ar    1  UNL1        0.0664
      8 C          -4.9883  -18.9456   19.7479 C.ar    1  UNL1        0.0228
      9 C          -3.9938  -18.5191   20.7866 C.ar    1  UNL1        0.0598
     10 N          -4.6544  -18.6192   22.1296 N.ar    1  UNL1       -0.3285
     11 C          -4.0230  -18.2889   23.4495 C.3     1  UNL1        0.1301
     12 C          -2.5858  -18.0713   20.5278 C.ar    1  UNL1        0.0158
     13 C          -1.6424  -18.9609   19.7737 C.ar    1  UNL1        0.0014
     14 C          -0.2345  -18.5130   19.5149 C.ar    1  UNL1        0.0000
     15 C           0.2302  -17.1755   20.0102 C.ar    1  UNL1        0.0000
     16 C          -0.7132  -16.2859   20.7642 C.ar    1  UNL1        0.0000
     17 C          -2.1212  -16.7338   21.0230 C.ar    1  UNL1        0.0014
     18 C         -10.0545  -19.4874   19.2879 C.3     1  UNL1        0.0911
     19 C         -11.3023  -18.6581   19.3623 C.3     1  UNL1        0.0386
     20 C         -11.9161  -18.3445   20.6945 C.3     1  UNL1        0.0739
     21 N         -11.0543  -17.8562   21.8211 N.3     1  UNL1       -0.2697
     22 C         -10.9096  -18.6800   23.0662 C.3     1  UNL1        0.0938
     23 C         -10.0479  -18.1917   24.1926 C.3     1  UNL1        0.1081
     24 N          -9.3309  -16.8795   24.0740 N.pl3   1  UNL1       -0.3040
     25 C          -9.4756  -16.0557   22.8289 C.3     1  UNL1        0.1081
     26 C         -10.3373  -16.5440   21.7024 C.3     1  UNL1        0.0938
     27 C          -8.4692  -16.3912   25.2005 C.ar    1  UNL1        0.0594
     28 C          -8.9713  -16.4583   26.6123 C.ar    1  UNL1        0.0154
     29 C          -8.1095  -15.9699   27.7389 C.ar    1  UNL1        0.0022
     30 C          -6.7457  -15.4145   27.4535 C.ar    1  UNL1        0.0123
     31 C          -6.2436  -15.3474   26.0415 C.ar    1  UNL1        0.0694
     32 CL         -4.8798  -14.7919   25.7561 Cl      1  UNL1       -0.0813
     33 C          -7.1053  -15.8357   24.9151 C.ar    1  UNL1        0.0815
     34 CL         -6.6033  -15.7686   23.5032 Cl      1  UNL1       -0.0801
@<TRIPOS>BOND
     1     5     6    1
     2     6     7   ar
     3     7     1    1
     4     1     2    2
     5     1     3   am
     6     3    18    1
     7    18    19    1
     8    19    20    1
     9    20    21    1
    10    21    22    1
    11    22    23    1
    12    23    24    1
    13    24    27    1
    14    27    28   ar
    15    28    29   ar
    16    29    30   ar
    17    30    31   ar
    18    31    32    1
    19    31    33   ar
    20    33    34    1
    21    24    25    1
    22    25    26    1
    23     7     8   ar
    24     8     9   ar
    25     9    12    1
    26    12    13   ar
    27    13    14   ar
    28    14    15   ar
    29    15    16   ar
    30    16    17   ar
    31     9    10   ar
    32    10    11    1
    33    10     6   ar
    34    26    21    1
    35    17    12   ar
    36    33    27   ar
    37     3     4    1
@<TRIPOS>MOLECULE
*****
 34 37 0 0 0
SMALL
GASTEIGER

@<TRIPOS>ATOM
      1 C         -12.2244   -1.8470   17.8210 C.2     1  UNL1        0.2470
      2 O         -11.2500   -1.4787   18.9003 O.2     1  UNL1       -0.2701
      3 N         -11.7299   -2.4346   16.5326 N.am    1  UNL1       -0.3008
      4 H         -12.3694   -2.6763   15.8243 H       1  UNL1        0.1497
      5 C         -13.6994    1.0405   18.1911 C.3     1  UNL1        0.0502
      6 C         -14.3714   -0.3005   18.2004 C.ar    1  UNL1        0.0418
      7 C         -13.6935   -1.6277   18.0303 C.ar    1  UNL1        0.0664
      8 C         -14.7426   -2.6971   18.1061 C.ar    1  UNL1        0.0228
      9 C         -16.0689   -2.0309   18.3231 C.ar    1  UNL1        0.0598
     10 N         -15.8395   -0.5496   18.3814 N.ar    1  UNL1       -0.3285
     11 C         -16.8931    0.4984   18.5849 C.3     1  UNL1        0.1301
     12 C         -17.3922   -2.7241   18.4582 C.ar    1  UNL1        0.0158
     13 C         -17.9959   -3.4245   17.2771 C.ar    1  UNL1        0.0014
     14 C         -19.3192   -4.1177   17.4121 C.ar    1  UNL1        0.0000
     15 C         -20.0388   -4.1106   18.7282 C.ar    1  UNL1        0.0000
     16 C         -19.4351   -3.4102   19.9093 C.ar    1  UNL1        0.0000
     17 C         -18.1118   -2.7170   19.7743 C.ar    1  UNL1        0.0014
     18 C         -10.2608   -2.6539   16.3234 C.3     1  UNL1        0.0911
     19 C          -9.5494   -3.7379   17.0777 C.3     1  UNL1        0.0386
     20 C          -9.9439   -5.1716   16.8807 C.3     1  UNL1        0.0739
     21 N         -11.2847   -5.6521   17.3514 N.3     1  UNL1       -0.2697
     22 C         -11.5763   -5.7408   18.8201 C.3     1  UNL1        0.0938
     23 C         -12.9170   -6.2212   19.2908 C.3     1  UNL1        0.1081
     24 N         -13.9661   -6.6130   18.2928 N.pl3   1  UNL1       -0.3040
     25 C         -13.6744   -6.5244   16.8242 C.3     1  UNL1        0.1081
     26 C         -12.3337   -6.0439   16.3535 C.3     1  UNL1        0.0938
     27 C         -15.3069   -7.0935   18.7636 C.ar    1  UNL1        0.0594
     28 C         -16.3081   -6.1144   19.3010 C.ar    1  UNL1        0.0154
     29 C         -17.6489   -6.5949   19.7717 C.ar    1  UNL1        0.0022
     30 C         -17.9883   -8.0545   19.7051 C.ar    1  UNL1        0.0123
     31 C         -16.9869   -9.0336   19.1677 C.ar    1  UNL1        0.0694
     32 CL        -17.3264  -10.4932   19.1010 Cl      1  UNL1       -0.0813
     33 C         -15.6463   -8.5531   18.6970 C.ar    1  UNL1        0.0815
     34 CL        -14.6449   -9.5322   18.1596 Cl      1  UNL1       -0.0801
@<TRIPOS>BOND
     1     5     6    1
     2     6     7   ar
     3     7     1    1
     4     1     2    2
     5     1     3   am
     6     3    18    1
     7    18    19    1
     8    19    20    1
     9    20    21    1
    10    21    22    1
    11    22    23    1
    12    23    24    1
    13    24    27    1
    14    27    28   ar
    15    28    29   ar
    16    29    30   ar
    17    30    31   ar
    18    31    32    1
    19    31    33   ar
    20    33    34    1
    21    24    25    1
    22    25    26    1
    23     7     8   ar
    24     8     9   ar
    25     9    12    1
    26    12    13   ar
    27    13    14   ar
    28    14    15   ar
    29    15    16   ar
    30    16    17   ar
    31     9    10   ar
    32    10    11    1
    33    10     6   ar
    34    26    21    1
    35    17    12   ar
    36    33    27   ar
    37     3     4    1
@<TRIPOS>MOLECULE
*****
 34 37 0 0 0
SMALL
GASTEIGER

@<TRIPOS>ATOM
      1 C         -11.1834   -3.2417   17.8943 C.2     1  UNL1        0.2470
      2 O         -10.1580   -3.3462   18.9841 O.2     1  UNL1       -0.2701
      3 N         -11.1221   -4.1673   16.7156 N.am    1  UNL1       -0.3008
      4 H         -11.7950   -4.0987   16.0003 H       1  UNL1        0.1497
      5 C         -10.9177   -0.0966   17.0650 C.3     1  UNL1        0.0502
      6 C         -12.1480   -0.7659   17.6021 C.ar    1  UNL1        0.0418
      7 C         -12.2701   -2.2115   17.9833 C.ar    1  UNL1        0.0664
      8 C         -13.6697   -2.4461   18.4691 C.ar    1  UNL1        0.0228
      9 C         -14.4127   -1.1456   18.3882 C.ar    1  UNL1        0.0598
     10 N         -13.4721   -0.1071   17.8523 N.ar    1  UNL1       -0.3285
     11 C         -13.7985    1.3367   17.6094 C.3     1  UNL1        0.1301
     12 C         -15.8446   -0.9226   18.7751 C.ar    1  UNL1        0.0158
     13 C         -16.9468   -1.3712   17.8619 C.ar    1  UNL1        0.0014
     14 C         -18.3788   -1.1481   18.2489 C.ar    1  UNL1        0.0000
     15 C         -18.7085   -0.4765   19.5490 C.ar    1  UNL1        0.0000
     16 C         -17.6063   -0.0279   20.4621 C.ar    1  UNL1        0.0000
     17 C         -16.1744   -0.2509   20.0752 C.ar    1  UNL1        0.0014
     18 C         -10.0354   -5.1974   16.6267 C.3     1  UNL1        0.0911
     19 C          -9.7673   -6.1070   17.7889 C.3     1  UNL1        0.0386
     20 C         -10.6745   -7.2716   18.0547 C.3     1  UNL1        0.0739
     21 N         -12.1327   -7.0410   18.3202 N.3     1  UNL1       -0.2697
     22 C         -13.1660   -7.7086   17.4620 C.3     1  UNL1        0.0938
     23 C         -14.6242   -7.4780   17.7275 C.3     1  UNL1        0.1081
     24 N         -15.0490   -6.5799   18.8512 N.pl3   1  UNL1       -0.3040
     25 C         -14.0158   -5.9124   19.7095 C.3     1  UNL1        0.1081
     26 C         -12.5576   -6.1429   19.4440 C.3     1  UNL1        0.0938
     27 C         -16.5073   -6.3494   19.1167 C.ar    1  UNL1        0.0594
     28 C         -17.1358   -5.0348   18.7608 C.ar    1  UNL1        0.0154
     29 C         -18.5940   -4.8042   19.0263 C.ar    1  UNL1        0.0022
     30 C         -19.4238   -5.8884   19.6477 C.ar    1  UNL1        0.0123
     31 C         -18.7952   -7.2031   20.0037 C.ar    1  UNL1        0.0694
     32 CL        -19.6249   -8.2872   20.6251 Cl      1  UNL1       -0.0813
     33 C         -17.3370   -7.4335   19.7382 C.ar    1  UNL1        0.0815
     34 CL        -16.7085   -8.7482   20.0941 Cl      1  UNL1       -0.0801
@<TRIPOS>BOND
     1     5     6    1
     2     6     7   ar
     3     7     1    1
     4     1     2    2
     5     1     3   am
     6     3    18    1
     7    18    19    1
     8    19    20    1
     9    20    21    1
    10    21    22    1
    11    22    23    1
    12    23    24    1
    13    24    27    1
    14    27    28   ar
    15    28    29   ar
    16    29    30   ar
    17    30    31   ar
    18    31    32    1
    19    31    33   ar
    20    33    34    1
    21    24    25    1
    22    25    26    1
    23     7     8   ar
    24     8     9   ar
    25     9    12    1
    26    12    13   ar
    27    13    14   ar
    28    14    15   ar
    29    15    16   ar
    30    16    17   ar
    31     9    10   ar
    32    10    11    1
    33    10     6   ar
    34    26    21    1
    35    17    12   ar
    36    33    27   ar
    37     3     4    1
@<TRIPOS>MOLECULE
*****
 34 37 0 0 0
SMALL
GASTEIGER

@<TRIPOS>ATOM
      1 C           4.1151   -1.1552   26.5358 C.2     1  UNL1        0.2470
      2 O           3.2354   -1.7006   27.6214 O.2     1  UNL1       -0.2701
      3 N           5.6069   -1.2022   26.6847 N.am    1  UNL1       -0.3008
      4 H           6.1843   -0.8442   25.9721 H       1  UNL1        0.1497
      5 C           1.8259    1.1692   26.4555 C.3     1  UNL1        0.0502
      6 C           2.4507    0.5056   25.2642 C.ar    1  UNL1        0.0418
      7 C           3.5029   -0.5628   25.3011 C.ar    1  UNL1        0.0664
      8 C           3.8354   -0.9348   23.8865 C.ar    1  UNL1        0.0228
      9 C           2.9888   -0.0964   22.9754 C.ar    1  UNL1        0.0598
     10 N           2.1329    0.7939   23.8269 N.ar    1  UNL1       -0.3285
     11 C           1.1346    1.7964   23.3286 C.3     1  UNL1        0.1301
     12 C           2.9966   -0.1404   21.4761 C.ar    1  UNL1        0.0158
     13 C           4.1985    0.3397   20.7179 C.ar    1  UNL1        0.0014
     14 C           4.2063    0.2956   19.2186 C.ar    1  UNL1        0.0000
     15 C           3.0122   -0.2285   18.4774 C.ar    1  UNL1        0.0000
     16 C           1.8102   -0.7085   19.2356 C.ar    1  UNL1        0.0000
     17 C           1.8024   -0.6645   20.7349 C.ar    1  UNL1        0.0014
     18 C           6.2190   -1.7945   27.9193 C.3     1  UNL1        0.0911
     19 C           7.5188   -2.5380   27.8294 C.3     1  UNL1        0.0386
     20 C           8.4452   -2.2920   26.6757 C.3     1  UNL1        0.0739
     21 N           7.9393   -2.4120   25.2687 N.3     1  UNL1       -0.2697
     22 C           7.4550   -3.7359   24.7561 C.3     1  UNL1        0.0938
     23 C           6.9491   -3.8558   23.3491 C.3     1  UNL1        0.1081
     24 N           6.9274   -2.6518   22.4547 N.pl3   1  UNL1       -0.3040
     25 C           7.4117   -1.3279   22.9673 C.3     1  UNL1        0.1081
     26 C           7.9176   -1.2080   24.3743 C.3     1  UNL1        0.0938
     27 C           6.4215   -2.7718   21.0477 C.ar    1  UNL1        0.0594
     28 C           7.2616   -2.2847   19.9045 C.ar    1  UNL1        0.0154
     29 C           6.7556   -2.4047   18.4975 C.ar    1  UNL1        0.0022
     30 C           5.4095   -3.0117   18.2337 C.ar    1  UNL1        0.0123
     31 C           4.5694   -3.4987   19.3770 C.ar    1  UNL1        0.0694
     32 CL          3.2233   -4.1057   19.1133 Cl      1  UNL1       -0.0813
     33 C           5.0753   -3.3787   20.7840 C.ar    1  UNL1        0.0815
     34 CL          4.2352   -3.8658   21.9272 Cl      1  UNL1       -0.0801
@<TRIPOS>BOND
     1     5     6    1
     2     6     7   ar
     3     7     1    1
     4     1     2    2
     5     1     3   am
     6     3    18    1
     7    18    19    1
     8    19    20    1
     9    20    21    1
    10    21    22    1
    11    22    23    1
    12    23    24    1
    13    24    27    1
    14    27    28   ar
    15    28    29   ar
    16    29    30   ar
    17    30    31   ar
    18    31    32    1
    19    31    33   ar
    20    33    34    1
    21    24    25    1
    22    25    26    1
    23     7     8   ar
    24     8     9   ar
    25     9    12    1
    26    12    13   ar
    27    13    14   ar
    28    14    15   ar
    29    15    16   ar
    30    16    17   ar
    31     9    10   ar
    32    10    11    1
    33    10     6   ar
    34    26    21    1
    35    17    12   ar
    36    33    27   ar
    37     3     4    1
@<TRIPOS>MOLECULE
*****
 34 37 0 0 0
SMALL
GASTEIGER

@<TRIPOS>ATOM
      1 C         -13.5646   -7.4505   17.4267 C.2     1  UNL1        0.2470
      2 O         -13.9764   -7.8102   16.0299 O.2     1  UNL1       -0.2701
      3 N         -13.9816   -8.3167   18.5781 N.am    1  UNL1       -0.3008
      4 H         -13.7114   -8.0806   19.4949 H       1  UNL1        0.1497
      5 C         -10.5898   -7.3826   18.7669 C.3     1  UNL1        0.0502
      6 C         -11.3685   -6.1933   18.2881 C.ar    1  UNL1        0.0418
      7 C         -12.7358   -6.2245   17.6722 C.ar    1  UNL1        0.0664
      8 C         -13.1289   -4.8144   17.3446 C.ar    1  UNL1        0.0228
      9 C         -12.0046   -3.9118   17.7582 C.ar    1  UNL1        0.0598
     10 N         -10.9165   -4.7641   18.3413 N.ar    1  UNL1       -0.3285
     11 C          -9.6065   -4.2731   18.8826 C.3     1  UNL1        0.1301
     12 C         -11.9736   -2.4191   17.6139 C.ar    1  UNL1        0.0158
     13 C         -12.6884   -1.5544   18.6096 C.ar    1  UNL1        0.0014
     14 C         -12.6574   -0.0617   18.4654 C.ar    1  UNL1        0.0000
     15 C         -11.9117    0.5663   17.3255 C.ar    1  UNL1        0.0000
     16 C         -11.1969   -0.2983   16.3298 C.ar    1  UNL1        0.0000
     17 C         -11.2278   -1.7910   16.4740 C.ar    1  UNL1        0.0014
     18 C         -14.8104   -9.5426   18.3327 C.3     1  UNL1        0.0911
     19 C         -16.3073   -9.4571   18.3766 C.3     1  UNL1        0.0386
     20 C         -16.9738   -8.3775   19.1767 C.3     1  UNL1        0.0739
     21 N         -16.7951   -6.9390   18.7906 N.3     1  UNL1       -0.2697
     22 C         -16.2036   -5.9678   19.7688 C.3     1  UNL1        0.0938
     23 C         -16.0250   -4.5294   19.3827 C.3     1  UNL1        0.1081
     24 N         -16.4377   -4.0623   18.0183 N.pl3   1  UNL1       -0.3040
     25 C         -17.0291   -5.0335   17.0401 C.3     1  UNL1        0.1081
     26 C         -17.2078   -6.4719   17.4263 C.3     1  UNL1        0.0938
     27 C         -16.2590   -2.6238   17.6322 C.ar    1  UNL1        0.0594
     28 C         -15.5197   -2.2708   16.3757 C.ar    1  UNL1        0.0154
     29 C         -15.3410   -0.8324   15.9896 C.ar    1  UNL1        0.0022
     30 C         -15.9017    0.2530   16.8601 C.ar    1  UNL1        0.0123
     31 C         -16.6410   -0.1001   18.1166 C.ar    1  UNL1        0.0694
     32 CL        -17.2016    0.9853   18.9871 Cl      1  UNL1       -0.0813
     33 C         -16.8196   -1.5385   18.5027 C.ar    1  UNL1        0.0815
     34 CL        -17.5589   -1.8915   19.7592 Cl      1  UNL1       -0.0801
@<TRIPOS>BOND
     1     5     6    1
     2     6     7   ar
     3     7     1    1
     4     1     2    2
     5     1     3   am
     6     3    18    1
     7    18    19    1
     8    19    20    1
     9    20    21    1
    10    21    22    1
    11    22    23    1
    12    23    24    1
    13    24    27    1
    14    27    28   ar
    15    28    29   ar
    16    29    30   ar
    17    30    31   ar
    18    31    32    1
    19    31    33   ar
    20    33    34    1
    21    24    25    1
    22    25    26    1
    23     7     8   ar
    24     8     9   ar
    25     9    12    1
    26    12    13   ar
    27    13    14   ar
    28    14    15   ar
    29    15    16   ar
    30    16    17   ar
    31     9    10   ar
    32    10    11    1
    33    10     6   ar
    34    26    21    1
    35    17    12   ar
    36    33    27   ar
    37     3     4    1
@<TRIPOS>MOLECULE
*****
 34 37 0 0 0
SMALL
GASTEIGER

@<TRIPOS>ATOM
      1 C           4.9792   -1.5886   26.5008 C.2     1  UNL1        0.2470
      2 O           5.9723   -0.7642   27.2651 O.2     1  UNL1       -0.2701
      3 N           3.5544   -1.6656   26.9634 N.am    1  UNL1       -0.3008
      4 H           2.9026   -2.2067   26.4618 H       1  UNL1        0.1497
      5 C           7.3381   -3.8390   26.3563 C.3     1  UNL1        0.0502
      6 C           6.4951   -3.3702   25.2075 C.ar    1  UNL1        0.0418
      7 C           5.4109   -2.3359   25.2739 C.ar    1  UNL1        0.0664
      8 C           4.8341   -2.1799   23.8981 C.ar    1  UNL1        0.0228
      9 C           5.5619   -3.1179   22.9813 C.ar    1  UNL1        0.0598
     10 N           6.5885   -3.8536   23.7906 N.ar    1  UNL1       -0.3285
     11 C           7.5411   -4.8906   23.2737 C.3     1  UNL1        0.1301
     12 C           5.3077   -3.2901   21.5130 C.ar    1  UNL1        0.0158
     13 C           6.1691   -2.5760   20.5140 C.ar    1  UNL1        0.0014
     14 C           5.9149   -2.7481   19.0458 C.ar    1  UNL1        0.0000
     15 C           4.7994   -3.6343   18.5766 C.ar    1  UNL1        0.0000
     16 C           3.9380   -4.3484   19.5756 C.ar    1  UNL1        0.0000
     17 C           4.1921   -4.1763   21.0438 C.ar    1  UNL1        0.0014
     18 C           3.1228   -0.9184   28.1903 C.3     1  UNL1        0.0911
     19 C           2.5123    0.4458   28.0616 C.3     1  UNL1        0.0386
     20 C           3.1298    1.4604   27.1455 C.3     1  UNL1        0.0739
     21 N           2.9860    1.3150   25.6594 N.3     1  UNL1       -0.2697
     22 C           4.1668    1.5512   24.7650 C.3     1  UNL1        0.0938
     23 C           4.0229    1.4058   23.2791 C.3     1  UNL1        0.1081
     24 N           2.6983    1.0243   22.6875 N.pl3   1  UNL1       -0.3040
     25 C           1.5176    0.7881   23.5820 C.3     1  UNL1        0.1081
     26 C           1.6614    0.9335   25.0679 C.3     1  UNL1        0.0938
     27 C           2.5545    0.8789   21.2015 C.ar    1  UNL1        0.0594
     28 C           3.0358   -0.3675   20.5198 C.ar    1  UNL1        0.0154
     29 C           2.8920   -0.5129   19.0337 C.ar    1  UNL1        0.0022
     30 C           2.2668    0.5882   18.2295 C.ar    1  UNL1        0.0123
     31 C           1.7855    1.8346   18.9113 C.ar    1  UNL1        0.0694
     32 CL          1.1604    2.9357   18.1070 Cl      1  UNL1       -0.0813
     33 C           1.9294    1.9800   20.3972 C.ar    1  UNL1        0.0815
     34 CL          1.4480    3.2264   21.0790 Cl      1  UNL1       -0.0801
@<TRIPOS>BOND
     1     5     6    1
     2     6     7   ar
     3     7     1    1
     4     1     2    2
     5     1     3   am
     6     3    18    1
     7    18    19    1
     8    19    20    1
     9    20    21    1
    10    21    22    1
    11    22    23    1
    12    23    24    1
    13    24    27    1
    14    27    28   ar
    15    28    29   ar
    16    29    30   ar
    17    30    31   ar
    18    31    32    1
    19    31    33   ar
    20    33    34    1
    21    24    25    1
    22    25    26    1
    23     7     8   ar
    24     8     9   ar
    25     9    12    1
    26    12    13   ar
    27    13    14   ar
    28    14    15   ar
    29    15    16   ar
    30    16    17   ar
    31     9    10   ar
    32    10    11    1
    33    10     6   ar
    34    26    21    1
    35    17    12   ar
    36    33    27   ar
    37     3     4    1
@<TRIPOS>MOLECULE
*****
 34 37 0 0 0
SMALL
GASTEIGER

@<TRIPOS>ATOM
      1 C           5.7869   -3.7333   23.7037 C.2     1  UNL1        0.2470
      2 O           6.3910   -4.6345   22.6680 O.2     1  UNL1       -0.2701
      3 N           6.1442   -3.9077   25.1500 N.am    1  UNL1       -0.3008
      4 H           5.7477   -3.3161   25.8298 H       1  UNL1        0.1497
      5 C           4.3482   -1.5843   25.6942 C.3     1  UNL1        0.0502
      6 C           4.1642   -1.6699   24.2080 C.ar    1  UNL1        0.0418
      7 C           4.8255   -2.6576   23.2931 C.ar    1  UNL1        0.0664
      8 C           4.3565   -2.3808   21.8954 C.ar    1  UNL1        0.0228
      9 C           3.4054   -1.2220   21.9464 C.ar    1  UNL1        0.0598
     10 N           3.2865   -0.7826   23.3757 N.ar    1  UNL1       -0.3285
     11 C           2.4388    0.3459   23.8836 C.3     1  UNL1        0.1301
     12 C           2.6975   -0.6101   20.7741 C.ar    1  UNL1        0.0158
     13 C           3.4331   -0.3893   19.4856 C.ar    1  UNL1        0.0014
     14 C           2.7252    0.2227   18.3133 C.ar    1  UNL1        0.0000
     15 C           1.2817    0.6138   18.4295 C.ar    1  UNL1        0.0000
     16 C           0.5462    0.3931   19.7180 C.ar    1  UNL1        0.0000
     17 C           1.2541   -0.2189   20.8903 C.ar    1  UNL1        0.0014
     18 C           7.1056   -4.9833   25.5606 C.3     1  UNL1        0.0911
     19 C           6.6981   -6.0036   26.5820 C.3     1  UNL1        0.0386
     20 C           7.4417   -6.1030   27.8808 C.3     1  UNL1        0.0739
     21 N           7.0936   -5.1868   29.0164 N.3     1  UNL1       -0.2697
     22 C           6.5844   -3.8042   28.7356 C.3     1  UNL1        0.0938
     23 C           6.2363   -2.8881   29.8711 C.3     1  UNL1        0.1081
     24 N           6.3974   -3.3547   31.2876 N.pl3   1  UNL1       -0.3040
     25 C           6.9066   -4.7373   31.5685 C.3     1  UNL1        0.1081
     26 C           7.2547   -5.6534   30.4329 C.3     1  UNL1        0.0938
     27 C           6.0493   -2.4385   32.4232 C.ar    1  UNL1        0.0594
     28 C           4.6648   -2.4518   33.0002 C.ar    1  UNL1        0.0154
     29 C           4.3166   -1.5357   34.1358 C.ar    1  UNL1        0.0022
     30 C           5.3531   -0.6062   34.6944 C.ar    1  UNL1        0.0123
     31 C           6.7376   -0.5930   34.1173 C.ar    1  UNL1        0.0694
     32 CL          7.7740    0.3365   34.6759 Cl      1  UNL1       -0.0813
     33 C           7.0857   -1.5091   32.9818 C.ar    1  UNL1        0.0815
     34 CL          8.4702   -1.4958   32.4047 Cl      1  UNL1       -0.0801
@<TRIPOS>BOND
     1     5     6    1
     2     6     7   ar
     3     7     1    1
     4     1     2    2
     5     1     3   am
     6     3    18    1
     7    18    19    1
     8    19    20    1
     9    20    21    1
    10    21    22    1
    11    22    23    1
    12    23    24    1
    13    24    27    1
    14    27    28   ar
    15    28    29   ar
    16    29    30   ar
    17    30    31   ar
    18    31    32    1
    19    31    33   ar
    20    33    34    1
    21    24    25    1
    22    25    26    1
    23     7     8   ar
    24     8     9   ar
    25     9    12    1
    26    12    13   ar
    27    13    14   ar
    28    14    15   ar
    29    15    16   ar
    30    16    17   ar
    31     9    10   ar
    32    10    11    1
    33    10     6   ar
    34    26    21    1
    35    17    12   ar
    36    33    27   ar
    37     3     4    1
@<TRIPOS>MOLECULE
*****
 34 37 0 0 0
SMALL
GASTEIGER

@<TRIPOS>ATOM
      1 C         -12.6213   -5.7595   19.0138 C.2     1  UNL1        0.2470
      2 O         -12.4901   -4.6993   20.0667 O.2     1  UNL1       -0.2701
      3 N         -11.4114   -6.2149   18.2531 N.am    1  UNL1       -0.3008
      4 H         -11.4975   -6.9108   17.5620 H       1  UNL1        0.1497
      5 C         -13.4174   -7.4629   16.3464 C.3     1  UNL1        0.0502
      6 C         -14.3284   -7.1473   17.4955 C.ar    1  UNL1        0.0418
      7 C         -13.9626   -6.3644   18.7215 C.ar    1  UNL1        0.0664
      8 C         -15.1734   -6.2925   19.6041 C.ar    1  UNL1        0.0228
      9 C         -16.2876   -7.0309   18.9235 C.ar    1  UNL1        0.0598
     10 N         -15.7653   -7.5593   17.6203 N.ar    1  UNL1       -0.3285
     11 C         -16.5435   -8.3591   16.6179 C.3     1  UNL1        0.1301
     12 C         -17.6795   -7.2097   19.4530 C.ar    1  UNL1        0.0158
     13 C         -18.0674   -8.4938   20.1243 C.ar    1  UNL1        0.0014
     14 C         -19.4594   -8.6726   20.6538 C.ar    1  UNL1        0.0000
     15 C         -20.4635   -7.5672   20.5122 C.ar    1  UNL1        0.0000
     16 C         -20.0756   -6.2831   19.8409 C.ar    1  UNL1        0.0000
     17 C         -18.6836   -6.1043   19.3114 C.ar    1  UNL1        0.0014
     18 C         -10.0703   -5.6101   18.5454 C.3     1  UNL1        0.0911
     19 C          -9.2237   -5.0853   17.4238 C.3     1  UNL1        0.0386
     20 C          -9.6315   -3.8385   16.6963 C.3     1  UNL1        0.0739
     21 N         -10.7973   -3.0316   17.1862 N.3     1  UNL1       -0.2697
     22 C         -10.6690   -2.2100   18.4346 C.3     1  UNL1        0.0938
     23 C         -11.8348   -1.4032   18.9245 C.3     1  UNL1        0.1081
     24 N         -13.1288   -1.4179   18.1659 N.pl3   1  UNL1       -0.3040
     25 C         -13.2570   -2.2395   16.9175 C.3     1  UNL1        0.1081
     26 C         -12.0912   -3.0463   16.4277 C.3     1  UNL1        0.0938
     27 C         -14.2945   -0.6110   18.6558 C.ar    1  UNL1        0.0594
     28 C         -14.2451    0.8872   18.6023 C.ar    1  UNL1        0.0154
     29 C         -15.4109    1.6941   19.0922 C.ar    1  UNL1        0.0022
     30 C         -16.6261    1.0027   19.6356 C.ar    1  UNL1        0.0123
     31 C         -16.6755   -0.4956   19.6890 C.ar    1  UNL1        0.0694
     32 CL        -17.8907   -1.1870   20.2324 Cl      1  UNL1       -0.0813
     33 C         -15.5098   -1.3024   19.1992 C.ar    1  UNL1        0.0815
     34 CL        -15.5592   -2.8007   19.2526 Cl      1  UNL1       -0.0801
@<TRIPOS>BOND
     1     5     6    1
     2     6     7   ar
     3     7     1    1
     4     1     2    2
     5     1     3   am
     6     3    18    1
     7    18    19    1
     8    19    20    1
     9    20    21    1
    10    21    22    1
    11    22    23    1
    12    23    24    1
    13    24    27    1
    14    27    28   ar
    15    28    29   ar
    16    29    30   ar
    17    30    31   ar
    18    31    32    1
    19    31    33   ar
    20    33    34    1
    21    24    25    1
    22    25    26    1
    23     7     8   ar
    24     8     9   ar
    25     9    12    1
    26    12    13   ar
    27    13    14   ar
    28    14    15   ar
    29    15    16   ar
    30    16    17   ar
    31     9    10   ar
    32    10    11    1
    33    10     6   ar
    34    26    21    1
    35    17    12   ar
    36    33    27   ar
    37     3     4    1
@<TRIPOS>MOLECULE
*****
 34 37 0 0 0
SMALL
GASTEIGER

@<TRIPOS>ATOM
      1 C           6.9666   -4.6316   25.9215 C.2     1  UNL1        0.2470
      2 O           6.5255   -5.9326   26.5238 O.2     1  UNL1       -0.2701
      3 N           7.3807   -3.4961   26.8098 N.am    1  UNL1       -0.3008
      4 H           7.6702   -2.6422   26.4146 H       1  UNL1        0.1497
      5 C           9.3894   -5.5422   23.9338 C.3     1  UNL1        0.0502
      6 C           8.1072   -4.8846   23.5173 C.ar    1  UNL1        0.0418
      7 C           6.9936   -4.4660   24.4309 C.ar    1  UNL1        0.0664
      8 C           5.9116   -3.8528   23.5922 C.ar    1  UNL1        0.0228
      9 C           6.3565   -3.8924   22.1602 C.ar    1  UNL1        0.0598
     10 N           7.7135   -4.5301   22.1140 N.ar    1  UNL1       -0.3285
     11 C           8.5329   -4.7709   20.8808 C.3     1  UNL1        0.1301
     12 C           5.5807   -3.3837   20.9816 C.ar    1  UNL1        0.0158
     13 C           6.0191   -2.1334   20.2783 C.ar    1  UNL1        0.0014
     14 C           5.2433   -1.6246   19.0996 C.ar    1  UNL1        0.0000
     15 C           4.0291   -2.3662   18.6242 C.ar    1  UNL1        0.0000
     16 C           3.5908   -3.6165   19.3275 C.ar    1  UNL1        0.0000
     17 C           4.3666   -4.1252   20.5062 C.ar    1  UNL1        0.0014
     18 C           7.3537   -3.6617   28.3004 C.3     1  UNL1        0.0911
     19 C           6.8034   -2.5677   29.1667 C.3     1  UNL1        0.0386
     20 C           6.6670   -1.1767   28.6223 C.3     1  UNL1        0.0739
     21 N           5.7882   -0.9191   27.4342 N.3     1  UNL1       -0.2697
     22 C           6.2763   -0.0474   26.3153 C.3     1  UNL1        0.0938
     23 C           5.3975    0.2102   25.1274 C.3     1  UNL1        0.1081
     24 N           4.0307   -0.4039   25.0583 N.pl3   1  UNL1       -0.3040
     25 C           3.5426   -1.2755   26.1772 C.3     1  UNL1        0.1081
     26 C           4.4214   -1.5331   27.3652 C.3     1  UNL1        0.0938
     27 C           3.1519   -0.1462   23.8702 C.ar    1  UNL1        0.0594
     28 C           3.3143   -0.9668   22.6252 C.ar    1  UNL1        0.0154
     29 C           2.4355   -0.7091   21.4371 C.ar    1  UNL1        0.0022
     30 C           1.3943    0.3691   21.4942 C.ar    1  UNL1        0.0123
     31 C           1.2319    1.1897   22.7394 C.ar    1  UNL1        0.0694
     32 CL          0.1907    2.2680   22.7965 Cl      1  UNL1       -0.0813
     33 C           2.1106    0.9320   23.9273 C.ar    1  UNL1        0.0815
     34 CL          1.9482    1.7526   25.1725 Cl      1  UNL1       -0.0801
@<TRIPOS>BOND
     1     5     6    1
     2     6     7   ar
     3     7     1    1
     4     1     2    2
     5     1     3   am
     6     3    18    1
     7    18    19    1
     8    19    20    1
     9    20    21    1
    10    21    22    1
    11    22    23    1
    12    23    24    1
    13    24    27    1
    14    27    28   ar
    15    28    29   ar
    16    29    30   ar
    17    30    31   ar
    18    31    32    1
    19    31    33   ar
    20    33    34    1
    21    24    25    1
    22    25    26    1
    23     7     8   ar
    24     8     9   ar
    25     9    12    1
    26    12    13   ar
    27    13    14   ar
    28    14    15   ar
    29    15    16   ar
    30    16    17   ar
    31     9    10   ar
    32    10    11    1
    33    10     6   ar
    34    26    21    1
    35    17    12   ar
    36    33    27   ar
    37     3     4    1
