@<TRIPOS>MOLECULE
*****
 35 39 0 0 0
SMALL
GASTEIGER

@<TRIPOS>ATOM
      1 C           5.6489   -3.7180   21.7927 C.3     1  UNL1        0.0545
      2 C           6.7949   -3.9056   20.8433 C.3     1  UNL1        0.0157
      3 C           8.1525   -4.2674   21.3686 C.3     1  UNL1        0.0017
      4 C           8.3641   -4.4417   22.8433 C.3     1  UNL1        0.0044
      5 C           7.2181   -4.2541   23.7928 C.3     1  UNL1        0.0237
      6 C           5.8605   -3.8923   23.2675 C.3     1  UNL1        0.0201
      7 C           7.4297   -4.4284   25.2675 C.ar    1  UNL1       -0.0225
      8 C           8.1279   -3.3606   26.0564 C.ar    1  UNL1       -0.0041
      9 C           8.3395   -3.5349   27.5311 C.ar    1  UNL1        0.0042
     10 C           7.8529   -4.7770   28.2170 C.ar    1  UNL1        0.0536
     11 C           7.1547   -5.8448   27.4281 C.ar    1  UNL1        0.0042
     12 C           6.9431   -5.6705   25.9534 C.ar    1  UNL1       -0.0041
     13 C           8.0645   -4.9513   29.6917 C.2     1  UNL1        0.2490
     14 O           9.1027   -5.9114   30.1921 O.2     1  UNL1       -0.2699
     15 N           7.2380   -4.1654   30.6660 N.am    1  UNL1       -0.2752
     16 C           6.1434   -3.1466   30.5487 C.3     1  UNL1        0.1009
     17 C           6.0692   -3.0541   32.0439 C.3     1  UNL1        0.0762
     18 C           7.1638   -4.0729   32.1614 C.3     1  UNL1        0.1009
     19 C           5.2427   -2.2683   33.0183 C.2     1  UNL1        0.0533
     20 O           5.7406   -0.9497   33.5318 O.co2   1  UNL1       -0.5491
     21 O           3.9183   -2.8009   33.4791 O.co2   1  UNL1       -0.5491
     22 N           4.2913   -3.3561   21.2674 N.3     1  UNL1       -0.2962
     23 H           3.6325   -4.0226   21.6701 H       1  UNL1        0.1235
     24 C           3.6174   -4.5932   19.0844 C.3     1  UNL1        0.0220
     25 C           4.0396   -3.3380   19.7888 C.3     1  UNL1        0.0768
     26 C           4.2100   -2.0646   19.0145 C.ar    1  UNL1       -0.0080
     27 C           5.4271   -1.8628   18.1614 C.ar    1  UNL1       -0.0030
     28 C           5.5976   -0.5894   17.3872 C.ar    1  UNL1       -0.0003
     29 C           4.5509    0.4821   17.4660 C.ar    1  UNL1       -0.0000
     30 C           3.3337    0.2803   18.3192 C.ar    1  UNL1       -0.0003
     31 C           2.2871    1.3519   18.3980 C.ar    1  UNL1       -0.0000
     32 C           1.0700    1.1500   19.2511 C.ar    1  UNL1       -0.0000
     33 C           0.8995   -0.1234   20.0254 C.ar    1  UNL1       -0.0000
     34 C           1.9462   -1.1949   19.9465 C.ar    1  UNL1       -0.0003
     35 C           3.1633   -0.9931   19.0934 C.ar    1  UNL1       -0.0027
@<TRIPOS>UNITY_ATOM_ATTR
20 1
charge -1
@<TRIPOS>BOND
     1    25    24    1
     2    25    22    1
     3     1    22    1
     4     1     2    1
     5     2     3    1
     6     3     4    1
     7     4     5    1
     8     5     7    1
     9     7     8   ar
    10     8     9   ar
    11     9    10   ar
    12    10    13    1
    13    13    14    2
    14    13    15   am
    15    15    16    1
    16    16    17    1
    17    17    19    1
    18    19    20   ar
    19    19    21   ar
    20    17    18    1
    21    10    11   ar
    22    11    12   ar
    23     5     6    1
    24    25    26    1
    25    26    27   ar
    26    27    28   ar
    27    28    29   ar
    28    29    30   ar
    29    30    31   ar
    30    31    32   ar
    31    32    33   ar
    32    33    34   ar
    33    34    35   ar
    34     6     1    1
    35    35    26   ar
    36    12     7   ar
    37    35    30   ar
    38    18    15    1
    39    22    23    1
@<TRIPOS>MOLECULE
*****
 35 39 0 0 0
SMALL
GASTEIGER

@<TRIPOS>ATOM
      1 C           4.1408   -2.9757   21.8833 C.3     1  UNL1        0.0545
      2 C           4.5387   -2.7208   23.3069 C.3     1  UNL1        0.0157
      3 C           4.0929   -1.4659   23.9971 C.3     1  UNL1        0.0017
      4 C           3.2492   -0.4658   23.2637 C.3     1  UNL1        0.0044
      5 C           2.8512   -0.7207   21.8401 C.3     1  UNL1        0.0237
      6 C           3.2970   -1.9756   21.1499 C.3     1  UNL1        0.0201
      7 C           2.0074    0.2794   21.1067 C.ar    1  UNL1       -0.0225
      8 C           1.7319    0.0987   19.6433 C.ar    1  UNL1       -0.0041
      9 C           0.8881    1.0989   18.9100 C.ar    1  UNL1        0.0042
     10 C           0.3198    2.2796   19.6400 C.ar    1  UNL1        0.0536
     11 C           0.5954    2.4603   21.1033 C.ar    1  UNL1        0.0042
     12 C           1.4391    1.4602   21.8367 C.ar    1  UNL1       -0.0041
     13 C          -0.5239    3.2797   18.9066 C.2     1  UNL1        0.2490
     14 O           0.0117    3.9571   17.6800 O.2     1  UNL1       -0.2699
     15 N          -1.9033    3.6024   19.3997 N.am    1  UNL1       -0.2752
     16 C          -2.7529    3.1459   20.5484 C.3     1  UNL1        0.1009
     17 C          -3.8540    4.0588   20.0970 C.3     1  UNL1        0.0762
     18 C          -3.0045    4.5155   18.9482 C.3     1  UNL1        0.1009
     19 C          -5.2334    4.3816   20.5901 C.2     1  UNL1        0.0533
     20 O          -6.4325    3.9565   19.7954 O.co2   1  UNL1       -0.5491
     21 O          -5.4137    5.1293   21.8779 O.co2   1  UNL1       -0.5491
     22 N           4.5866   -4.2306   21.1931 N.3     1  UNL1       -0.2962
     23 H           5.2739   -4.6738   21.8028 H       1  UNL1        0.1235
     24 C           4.7411   -5.0872   18.7452 C.3     1  UNL1        0.0220
     25 C           5.2029   -4.1570   19.8275 C.3     1  UNL1        0.0768
     26 C           6.2810   -3.1533   19.5443 C.ar    1  UNL1       -0.0080
     27 C           7.6329   -3.3062   20.1760 C.ar    1  UNL1       -0.0030
     28 C           8.7109   -2.3025   19.8928 C.ar    1  UNL1       -0.0003
     29 C           8.4372   -1.1458   18.9779 C.ar    1  UNL1       -0.0000
     30 C           7.0853   -0.9928   18.3461 C.ar    1  UNL1       -0.0003
     31 C           6.8115    0.1639   17.4313 C.ar    1  UNL1       -0.0000
     32 C           5.4596    0.3169   16.7996 C.ar    1  UNL1       -0.0000
     33 C           4.3816   -0.6869   17.0828 C.ar    1  UNL1       -0.0000
     34 C           4.6553   -1.8436   17.9977 C.ar    1  UNL1       -0.0003
     35 C           6.0072   -1.9965   18.6293 C.ar    1  UNL1       -0.0027
@<TRIPOS>UNITY_ATOM_ATTR
20 1
charge -1
@<TRIPOS>BOND
     1    25    24    1
     2    25    22    1
     3     1    22    1
     4     1     2    1
     5     2     3    1
     6     3     4    1
     7     4     5    1
     8     5     7    1
     9     7     8   ar
    10     8     9   ar
    11     9    10   ar
    12    10    13    1
    13    13    14    2
    14    13    15   am
    15    15    16    1
    16    16    17    1
    17    17    19    1
    18    19    20   ar
    19    19    21   ar
    20    17    18    1
    21    10    11   ar
    22    11    12   ar
    23     5     6    1
    24    25    26    1
    25    26    27   ar
    26    27    28   ar
    27    28    29   ar
    28    29    30   ar
    29    30    31   ar
    30    31    32   ar
    31    32    33   ar
    32    33    34   ar
    33    34    35   ar
    34     6     1    1
    35    35    26   ar
    36    12     7   ar
    37    35    30   ar
    38    18    15    1
    39    22    23    1
@<TRIPOS>MOLECULE
*****
 35 39 0 0 0
SMALL
GASTEIGER

@<TRIPOS>ATOM
      1 C           6.7335   -2.8954   19.0597 C.3     1  UNL1        0.0545
      2 C           8.0363   -2.3026   18.6111 C.3     1  UNL1        0.0157
      3 C           9.2661   -2.4703   19.4533 C.3     1  UNL1        0.0017
      4 C           9.1932   -3.2309   20.7441 C.3     1  UNL1        0.0044
      5 C           7.8904   -3.8237   21.1928 C.3     1  UNL1        0.0237
      6 C           6.6605   -3.6560   20.3506 C.3     1  UNL1        0.0201
      7 C           7.8175   -4.5843   22.4835 C.ar    1  UNL1       -0.0225
      8 C           6.9387   -4.0925   23.5952 C.ar    1  UNL1       -0.0041
      9 C           6.8658   -4.8532   24.8861 C.ar    1  UNL1        0.0042
     10 C           7.6717   -6.1055   25.0652 C.ar    1  UNL1        0.0536
     11 C           8.5505   -6.5973   23.9535 C.ar    1  UNL1        0.0042
     12 C           8.6234   -5.8367   22.6627 C.ar    1  UNL1       -0.0041
     13 C           7.5988   -6.8661   26.3559 C.2     1  UNL1        0.2490
     14 O           7.4301   -8.3566   26.3398 O.2     1  UNL1       -0.2699
     15 N           7.6946   -6.1363   27.6629 N.am    1  UNL1       -0.2752
     16 C           7.8609   -4.7013   28.0668 C.3     1  UNL1        0.1009
     17 C           7.8300   -5.1042   29.5113 C.3     1  UNL1        0.0762
     18 C           7.6636   -6.5392   29.1075 C.3     1  UNL1        0.1009
     19 C           7.9257   -4.3744   30.8183 C.2     1  UNL1        0.0533
     20 O           6.9101   -4.6251   31.8934 O.co2   1  UNL1       -0.5491
     21 O           9.0370   -3.3940   31.0502 O.co2   1  UNL1       -0.5491
     22 N           5.5036   -2.7276   18.2175 N.3     1  UNL1       -0.2962
     23 H           5.5703   -1.8093   17.7786 H       1  UNL1        0.1235
     24 C           3.4571   -4.1341   18.9814 C.3     1  UNL1        0.0220
     25 C           4.1454   -2.8080   18.8492 C.3     1  UNL1        0.0768
     26 C           3.4756   -1.5622   19.3485 C.ar    1  UNL1       -0.0080
     27 C           2.8840   -0.5869   18.3745 C.ar    1  UNL1       -0.0030
     28 C           2.2142    0.6589   18.8738 C.ar    1  UNL1       -0.0003
     29 C           2.1360    0.9294   20.3471 C.ar    1  UNL1       -0.0000
     30 C           2.7276   -0.0459   21.3212 C.ar    1  UNL1       -0.0003
     31 C           2.6494    0.2245   22.7945 C.ar    1  UNL1       -0.0000
     32 C           3.2410   -0.7508   23.7685 C.ar    1  UNL1       -0.0000
     33 C           3.9109   -1.9966   23.2692 C.ar    1  UNL1       -0.0000
     34 C           3.9890   -2.2671   21.7959 C.ar    1  UNL1       -0.0003
     35 C           3.3974   -1.2917   20.8219 C.ar    1  UNL1       -0.0027
@<TRIPOS>UNITY_ATOM_ATTR
20 1
charge -1
@<TRIPOS>BOND
     1    25    24    1
     2    25    22    1
     3     1    22    1
     4     1     2    1
     5     2     3    1
     6     3     4    1
     7     4     5    1
     8     5     7    1
     9     7     8   ar
    10     8     9   ar
    11     9    10   ar
    12    10    13    1
    13    13    14    2
    14    13    15   am
    15    15    16    1
    16    16    17    1
    17    17    19    1
    18    19    20   ar
    19    19    21   ar
    20    17    18    1
    21    10    11   ar
    22    11    12   ar
    23     5     6    1
    24    25    26    1
    25    26    27   ar
    26    27    28   ar
    27    28    29   ar
    28    29    30   ar
    29    30    31   ar
    30    31    32   ar
    31    32    33   ar
    32    33    34   ar
    33    34    35   ar
    34     6     1    1
    35    35    26   ar
    36    12     7   ar
    37    35    30   ar
    38    18    15    1
    39    22    23    1
@<TRIPOS>MOLECULE
*****
 35 39 0 0 0
SMALL
GASTEIGER

@<TRIPOS>ATOM
      1 C           0.5575    0.8302   21.2895 C.3     1  UNL1        0.0545
      2 C          -0.0403    2.1158   20.8000 C.3     1  UNL1        0.0157
      3 C          -0.4286    3.1833   21.7797 C.3     1  UNL1        0.0017
      4 C          -0.2190    2.9652   23.2488 C.3     1  UNL1        0.0044
      5 C           0.3789    1.6795   23.7384 C.3     1  UNL1        0.0237
      6 C           0.7672    0.6120   22.7587 C.3     1  UNL1        0.0201
      7 C           0.5885    1.4613   25.2075 C.ar    1  UNL1       -0.0225
      8 C          -0.5842    1.4755   26.1427 C.ar    1  UNL1       -0.0041
      9 C          -0.3745    1.2573   27.6119 C.ar    1  UNL1        0.0042
     10 C           1.0078    1.0250   28.1459 C.ar    1  UNL1        0.0536
     11 C           2.1805    1.0108   27.2107 C.ar    1  UNL1        0.0042
     12 C           1.9709    1.2289   25.7416 C.ar    1  UNL1       -0.0041
     13 C           1.2174    0.8068   29.6150 C.2     1  UNL1        0.2490
     14 O           1.6558   -0.5364   30.1188 O.2     1  UNL1       -0.2699
     15 N           0.9886    1.9318   30.5805 N.am    1  UNL1       -0.2752
     16 C           0.5623    3.3647   30.4578 C.3     1  UNL1        0.1009
     17 C           0.6651    3.5227   31.9458 C.3     1  UNL1        0.0762
     18 C           1.0914    2.0899   32.0686 C.3     1  UNL1        0.1009
     19 C           0.4363    4.6477   32.9112 C.2     1  UNL1        0.0533
     20 O           1.6050    5.3296   33.5589 O.co2   1  UNL1       -0.5491
     21 O          -0.9610    5.0908   33.2290 O.co2   1  UNL1       -0.5491
     22 N           0.9458   -0.2373   20.3098 N.3     1  UNL1       -0.2962
     23 H           0.6500   -1.1271   20.7113 H       1  UNL1        0.1235
     24 C           3.1079    0.7336   19.2457 C.3     1  UNL1        0.0220
     25 C           2.3817   -0.3997   19.9075 C.3     1  UNL1        0.0768
     26 C           3.0913   -1.6955   20.1671 C.ar    1  UNL1       -0.0080
     27 C           3.1805   -2.7314   19.0860 C.ar    1  UNL1       -0.0030
     28 C           3.8902   -4.0272   19.3455 C.ar    1  UNL1       -0.0003
     29 C           4.5106   -4.2870   20.6862 C.ar    1  UNL1       -0.0000
     30 C           4.4214   -3.2511   21.7674 C.ar    1  UNL1       -0.0003
     31 C           5.0418   -3.5110   23.1081 C.ar    1  UNL1       -0.0000
     32 C           4.9526   -2.4751   24.1893 C.ar    1  UNL1       -0.0000
     33 C           4.2430   -1.1793   23.9297 C.ar    1  UNL1       -0.0000
     34 C           3.6226   -0.9194   22.5890 C.ar    1  UNL1       -0.0003
     35 C           3.7118   -1.9553   21.5079 C.ar    1  UNL1       -0.0027
@<TRIPOS>UNITY_ATOM_ATTR
20 1
charge -1
@<TRIPOS>BOND
     1    25    24    1
     2    25    22    1
     3     1    22    1
     4     1     2    1
     5     2     3    1
     6     3     4    1
     7     4     5    1
     8     5     7    1
     9     7     8   ar
    10     8     9   ar
    11     9    10   ar
    12    10    13    1
    13    13    14    2
    14    13    15   am
    15    15    16    1
    16    16    17    1
    17    17    19    1
    18    19    20   ar
    19    19    21   ar
    20    17    18    1
    21    10    11   ar
    22    11    12   ar
    23     5     6    1
    24    25    26    1
    25    26    27   ar
    26    27    28   ar
    27    28    29   ar
    28    29    30   ar
    29    30    31   ar
    30    31    32   ar
    31    32    33   ar
    32    33    34   ar
    33    34    35   ar
    34     6     1    1
    35    35    26   ar
    36    12     7   ar
    37    35    30   ar
    38    18    15    1
    39    22    23    1
@<TRIPOS>MOLECULE
*****
 35 39 0 0 0
SMALL
GASTEIGER

@<TRIPOS>ATOM
      1 C           5.7562   -1.5699   18.4700 C.3     1  UNL1        0.0545
      2 C           7.0620   -0.8793   18.2096 C.3     1  UNL1        0.0157
      3 C           7.0942    0.6032   17.9832 C.3     1  UNL1        0.0017
      4 C           5.8207    1.3950   18.0171 C.3     1  UNL1        0.0044
      5 C           4.5148    0.7043   18.2776 C.3     1  UNL1        0.0237
      6 C           4.4826   -0.7782   18.5040 C.3     1  UNL1        0.0201
      7 C           3.2413    1.4960   18.3115 C.ar    1  UNL1       -0.0225
      8 C           1.9183    0.7893   18.3010 C.ar    1  UNL1       -0.0041
      9 C           0.6447    1.5812   18.3350 C.ar    1  UNL1        0.0042
     10 C           0.6942    3.0796   18.3794 C.ar    1  UNL1        0.0536
     11 C           2.0172    3.7864   18.3899 C.ar    1  UNL1        0.0042
     12 C           3.2907    2.9946   18.3559 C.ar    1  UNL1       -0.0041
     13 C          -0.5793    3.8714   18.4134 C.2     1  UNL1        0.2490
     14 O          -0.9513    4.7438   17.2512 O.2     1  UNL1       -0.2699
     15 N          -1.4809    3.7908   19.6095 N.am    1  UNL1       -0.2752
     16 C          -1.4467    3.0545   20.9158 C.3     1  UNL1        0.1009
     17 C          -2.7560    3.6768   21.3010 C.3     1  UNL1        0.0762
     18 C          -2.7903    4.4132   19.9946 C.3     1  UNL1        0.1009
     19 C          -3.6576    3.5962   22.4971 C.2     1  UNL1        0.0533
     20 O          -3.2216    4.1852   23.8059 O.co2   1  UNL1       -0.5491
     21 O          -4.9951    2.9267   22.3843 O.co2   1  UNL1       -0.5491
     22 N           5.7239   -3.0524   18.6965 N.3     1  UNL1       -0.2962
     23 H           5.4817   -3.4815   17.8034 H       1  UNL1        0.1235
     24 C           3.6469   -4.4955   19.2911 C.3     1  UNL1        0.0220
     25 C           4.7970   -3.6344   19.7222 C.3     1  UNL1        0.0768
     26 C           5.0201   -3.3553   21.1790 C.ar    1  UNL1       -0.0080
     27 C           6.0529   -4.1310   21.9417 C.ar    1  UNL1       -0.0030
     28 C           6.2760   -3.8519   23.3985 C.ar    1  UNL1       -0.0003
     29 C           5.4663   -2.7972   24.0927 C.ar    1  UNL1       -0.0000
     30 C           4.4335   -2.0215   23.3300 C.ar    1  UNL1       -0.0003
     31 C           3.6238   -0.9667   24.0242 C.ar    1  UNL1       -0.0000
     32 C           2.5910   -0.1911   23.2616 C.ar    1  UNL1       -0.0000
     33 C           2.3679   -0.4701   21.8047 C.ar    1  UNL1       -0.0000
     34 C           3.1776   -1.5249   21.1106 C.ar    1  UNL1       -0.0003
     35 C           4.2104   -2.3005   21.8732 C.ar    1  UNL1       -0.0027
@<TRIPOS>UNITY_ATOM_ATTR
20 1
charge -1
@<TRIPOS>BOND
     1    25    24    1
     2    25    22    1
     3     1    22    1
     4     1     2    1
     5     2     3    1
     6     3     4    1
     7     4     5    1
     8     5     7    1
     9     7     8   ar
    10     8     9   ar
    11     9    10   ar
    12    10    13    1
    13    13    14    2
    14    13    15   am
    15    15    16    1
    16    16    17    1
    17    17    19    1
    18    19    20   ar
    19    19    21   ar
    20    17    18    1
    21    10    11   ar
    22    11    12   ar
    23     5     6    1
    24    25    26    1
    25    26    27   ar
    26    27    28   ar
    27    28    29   ar
    28    29    30   ar
    29    30    31   ar
    30    31    32   ar
    31    32    33   ar
    32    33    34   ar
    33    34    35   ar
    34     6     1    1
    35    35    26   ar
    36    12     7   ar
    37    35    30   ar
    38    18    15    1
    39    22    23    1
@<TRIPOS>MOLECULE
*****
 35 39 0 0 0
SMALL
GASTEIGER

@<TRIPOS>ATOM
      1 C           2.1764   -0.3910   21.2871 C.3     1  UNL1        0.0545
      2 C           1.3686    0.6561   21.9949 C.3     1  UNL1        0.0157
      3 C           1.5932    0.9169   23.4549 C.3     1  UNL1        0.0017
      4 C           2.6256    0.1306   24.2071 C.3     1  UNL1        0.0044
      5 C           3.4335   -0.9165   23.4993 C.3     1  UNL1        0.0237
      6 C           3.2089   -1.1773   22.0393 C.3     1  UNL1        0.0201
      7 C           4.4659   -1.7028   24.2515 C.ar    1  UNL1       -0.0225
      8 C           5.0978   -2.9079   23.6201 C.ar    1  UNL1       -0.0041
      9 C           6.1303   -3.6942   24.3724 C.ar    1  UNL1        0.0042
     10 C           6.5308   -3.2754   25.7559 C.ar    1  UNL1        0.0536
     11 C           5.8989   -2.0704   26.3872 C.ar    1  UNL1        0.0042
     12 C           4.8665   -1.2841   25.6351 C.ar    1  UNL1       -0.0041
     13 C           7.5632   -4.0617   26.5081 C.2     1  UNL1        0.2490
     14 O           8.7892   -4.5591   25.8011 O.2     1  UNL1       -0.2699
     15 N           7.3698   -4.3507   27.9672 N.am    1  UNL1       -0.2752
     16 C           6.3111   -4.0310   28.9806 C.3     1  UNL1        0.1009
     17 C           7.0962   -4.7593   30.0307 C.3     1  UNL1        0.0762
     18 C           8.1550   -5.0791   29.0175 C.3     1  UNL1        0.1009
     19 C           6.9027   -5.0483   31.4899 C.2     1  UNL1        0.0533
     20 O           6.9041   -6.4659   31.9803 O.co2   1  UNL1       -0.5491
     21 O           6.7079   -3.9197   32.4585 O.co2   1  UNL1       -0.5491
     22 N           1.9518   -0.6517   19.8271 N.3     1  UNL1       -0.2962
     23 H           1.2929   -1.4278   19.7646 H       1  UNL1        0.1235
     24 C           3.4654   -0.1017   17.7883 C.3     1  UNL1        0.0220
     25 C           3.1113   -0.9956   18.9396 C.3     1  UNL1        0.0768
     26 C           3.9165   -2.2333   19.2036 C.ar    1  UNL1       -0.0080
     27 C           3.3219   -3.5851   18.9411 C.ar    1  UNL1       -0.0030
     28 C           4.1272   -4.8228   19.2050 C.ar    1  UNL1       -0.0003
     29 C           5.5271   -4.7086   19.7314 C.ar    1  UNL1       -0.0000
     30 C           6.1218   -3.3568   19.9939 C.ar    1  UNL1       -0.0003
     31 C           7.5217   -3.2426   20.5203 C.ar    1  UNL1       -0.0000
     32 C           8.1164   -1.8908   20.7828 C.ar    1  UNL1       -0.0000
     33 C           7.3111   -0.6531   20.5189 C.ar    1  UNL1       -0.0000
     34 C           5.9112   -0.7673   19.9925 C.ar    1  UNL1       -0.0003
     35 C           5.3165   -2.1191   19.7300 C.ar    1  UNL1       -0.0027
@<TRIPOS>UNITY_ATOM_ATTR
20 1
charge -1
@<TRIPOS>BOND
     1    25    24    1
     2    25    22    1
     3     1    22    1
     4     1     2    1
     5     2     3    1
     6     3     4    1
     7     4     5    1
     8     5     7    1
     9     7     8   ar
    10     8     9   ar
    11     9    10   ar
    12    10    13    1
    13    13    14    2
    14    13    15   am
    15    15    16    1
    16    16    17    1
    17    17    19    1
    18    19    20   ar
    19    19    21   ar
    20    17    18    1
    21    10    11   ar
    22    11    12   ar
    23     5     6    1
    24    25    26    1
    25    26    27   ar
    26    27    28   ar
    27    28    29   ar
    28    29    30   ar
    29    30    31   ar
    30    31    32   ar
    31    32    33   ar
    32    33    34   ar
    33    34    35   ar
    34     6     1    1
    35    35    26   ar
    36    12     7   ar
    37    35    30   ar
    38    18    15    1
    39    22    23    1
@<TRIPOS>MOLECULE
*****
 35 39 0 0 0
SMALL
GASTEIGER

@<TRIPOS>ATOM
      1 C           4.6382   -0.9373   17.6905 C.3     1  UNL1        0.0545
      2 C           5.7559   -0.0023   17.3351 C.3     1  UNL1        0.0157
      3 C           5.5909    1.4749   17.5368 C.3     1  UNL1        0.0017
      4 C           4.3081    2.0171   18.0939 C.3     1  UNL1        0.0044
      5 C           3.1902    1.0821   18.4493 C.3     1  UNL1        0.0237
      6 C           3.3553   -0.3951   18.2476 C.3     1  UNL1        0.0201
      7 C           1.9075    1.6243   19.0064 C.ar    1  UNL1       -0.0225
      8 C           1.0975    0.8002   19.9629 C.ar    1  UNL1       -0.0041
      9 C          -0.1853    1.3425   20.5200 C.ar    1  UNL1        0.0042
     10 C          -0.6582    2.7088   20.1206 C.ar    1  UNL1        0.0536
     11 C           0.1517    3.5329   19.1641 C.ar    1  UNL1        0.0042
     12 C           1.4345    2.9907   18.6070 C.ar    1  UNL1       -0.0041
     13 C          -1.9410    3.2510   20.6777 C.2     1  UNL1        0.2490
     14 O          -3.0933    3.5405   19.7620 O.2     1  UNL1       -0.2699
     15 N          -2.0715    3.5038   22.1505 N.am    1  UNL1       -0.2752
     16 C          -1.1698    3.3430   23.3383 C.3     1  UNL1        0.1009
     17 C          -2.2562    3.8612   24.2333 C.3     1  UNL1        0.0762
     18 C          -3.1580    4.0220   23.0455 C.3     1  UNL1        0.1009
     19 C          -2.3867    4.1140   25.7060 C.2     1  UNL1        0.0533
     20 O          -1.2853    4.8116   26.4478 O.co2   1  UNL1       -0.5491
     21 O          -3.6187    3.6691   26.4370 O.co2   1  UNL1       -0.5491
     22 N           4.8032   -2.4145   17.4888 N.3     1  UNL1       -0.2962
     23 H           3.9192   -2.7614   17.1166 H       1  UNL1        0.1235
     24 C           4.6515   -4.7051   18.7054 C.3     1  UNL1        0.0220
     25 C           5.1593   -3.2948   18.6500 C.3     1  UNL1        0.0768
     26 C           6.0233   -2.7648   19.7557 C.ar    1  UNL1       -0.0080
     27 C           7.5168   -2.8503   19.6472 C.ar    1  UNL1       -0.0030
     28 C           8.3808   -2.3202   20.7529 C.ar    1  UNL1       -0.0003
     29 C           7.7511   -1.7046   21.9672 C.ar    1  UNL1       -0.0000
     30 C           6.2575   -1.6190   22.0758 C.ar    1  UNL1       -0.0003
     31 C           5.6278   -1.0034   23.2901 C.ar    1  UNL1       -0.0000
     32 C           4.1343   -0.9178   23.3986 C.ar    1  UNL1       -0.0000
     33 C           3.2703   -1.4479   22.2929 C.ar    1  UNL1       -0.0000
     34 C           3.9000   -2.0635   21.0786 C.ar    1  UNL1       -0.0003
     35 C           5.3935   -2.1491   20.9701 C.ar    1  UNL1       -0.0027
@<TRIPOS>UNITY_ATOM_ATTR
20 1
charge -1
@<TRIPOS>BOND
     1    25    24    1
     2    25    22    1
     3     1    22    1
     4     1     2    1
     5     2     3    1
     6     3     4    1
     7     4     5    1
     8     5     7    1
     9     7     8   ar
    10     8     9   ar
    11     9    10   ar
    12    10    13    1
    13    13    14    2
    14    13    15   am
    15    15    16    1
    16    16    17    1
    17    17    19    1
    18    19    20   ar
    19    19    21   ar
    20    17    18    1
    21    10    11   ar
    22    11    12   ar
    23     5     6    1
    24    25    26    1
    25    26    27   ar
    26    27    28   ar
    27    28    29   ar
    28    29    30   ar
    29    30    31   ar
    30    31    32   ar
    31    32    33   ar
    32    33    34   ar
    33    34    35   ar
    34     6     1    1
    35    35    26   ar
    36    12     7   ar
    37    35    30   ar
    38    18    15    1
    39    22    23    1
@<TRIPOS>MOLECULE
*****
 35 39 0 0 0
SMALL
GASTEIGER

@<TRIPOS>ATOM
      1 C           2.7036   -0.5163   28.1439 C.3     1  UNL1        0.0545
      2 C           3.7570   -1.1535   27.2871 C.3     1  UNL1        0.0157
      3 C           5.0478   -1.6095   27.9003 C.3     1  UNL1        0.0017
      4 C           5.2851   -1.4282   29.3702 C.3     1  UNL1        0.0044
      5 C           4.2317   -0.7909   30.2271 C.3     1  UNL1        0.0237
      6 C           2.9409   -0.3349   29.6139 C.3     1  UNL1        0.0201
      7 C           4.4690   -0.6096   31.6970 C.ar    1  UNL1       -0.0225
      8 C           4.2390   -1.7528   32.6405 C.ar    1  UNL1       -0.0041
      9 C           4.4763   -1.5714   34.1105 C.ar    1  UNL1        0.0042
     10 C           4.9437   -0.2469   34.6370 C.ar    1  UNL1        0.0536
     11 C           5.1737    0.8963   33.6935 C.ar    1  UNL1        0.0042
     12 C           4.9364    0.7150   32.2236 C.ar    1  UNL1       -0.0041
     13 C           5.1810   -0.0656   36.1069 C.2     1  UNL1        0.2490
     14 O           6.3848   -0.6837   36.7541 O.2     1  UNL1       -0.2699
     15 N           4.2146    0.7338   36.9297 N.am    1  UNL1       -0.2752
     16 C           2.9429    1.4774   36.6472 C.3     1  UNL1        0.1009
     17 C           2.8479    1.8643   38.0933 C.3     1  UNL1        0.0762
     18 C           4.1196    1.1207   38.3759 C.3     1  UNL1        0.1009
     19 C           1.8814    2.6637   38.9160 C.2     1  UNL1        0.0533
     20 O           0.5005    2.9357   38.3971 O.co2   1  UNL1       -0.5491
     21 O           2.2958    3.1911   40.2577 O.co2   1  UNL1       -0.5491
     22 N           1.4128   -0.0603   27.5307 N.3     1  UNL1       -0.2962
     23 H           1.6524    0.6310   26.8200 H       1  UNL1        0.1235
     24 C          -0.7276   -0.3061   28.9828 C.3     1  UNL1        0.0220
     25 C           0.3494    0.5545   28.3917 C.3     1  UNL1        0.0768
     26 C           0.3631    2.0299   28.6617 C.ar    1  UNL1       -0.0080
     27 C           0.0205    2.9959   27.5665 C.ar    1  UNL1       -0.0030
     28 C           0.0341    4.4714   27.8365 C.ar    1  UNL1       -0.0003
     29 C           0.3904    4.9808   29.2016 C.ar    1  UNL1       -0.0000
     30 C           0.7330    4.0148   30.2968 C.ar    1  UNL1       -0.0003
     31 C           1.0893    4.5242   31.6619 C.ar    1  UNL1       -0.0000
     32 C           1.4319    3.5582   32.7570 C.ar    1  UNL1       -0.0000
     33 C           1.4182    2.0828   32.4871 C.ar    1  UNL1       -0.0000
     34 C           1.0619    1.5733   31.1220 C.ar    1  UNL1       -0.0003
     35 C           0.7193    2.5393   30.0269 C.ar    1  UNL1       -0.0027
@<TRIPOS>UNITY_ATOM_ATTR
20 1
charge -1
@<TRIPOS>BOND
     1    25    24    1
     2    25    22    1
     3     1    22    1
     4     1     2    1
     5     2     3    1
     6     3     4    1
     7     4     5    1
     8     5     7    1
     9     7     8   ar
    10     8     9   ar
    11     9    10   ar
    12    10    13    1
    13    13    14    2
    14    13    15   am
    15    15    16    1
    16    16    17    1
    17    17    19    1
    18    19    20   ar
    19    19    21   ar
    20    17    18    1
    21    10    11   ar
    22    11    12   ar
    23     5     6    1
    24    25    26    1
    25    26    27   ar
    26    27    28   ar
    27    28    29   ar
    28    29    30   ar
    29    30    31   ar
    30    31    32   ar
    31    32    33   ar
    32    33    34   ar
    33    34    35   ar
    34     6     1    1
    35    35    26   ar
    36    12     7   ar
    37    35    30   ar
    38    18    15    1
    39    22    23    1
@<TRIPOS>MOLECULE
*****
 35 39 0 0 0
SMALL
GASTEIGER

@<TRIPOS>ATOM
      1 C           4.3681   -2.8461   22.3770 C.3     1  UNL1        0.0545
      2 C           4.5434   -3.9137   21.3380 C.3     1  UNL1        0.0157
      3 C           3.9400   -3.7407   19.9757 C.3     1  UNL1        0.0017
      4 C           3.1613   -2.5002   19.6523 C.3     1  UNL1        0.0044
      5 C           2.9860   -1.4325   20.6913 C.3     1  UNL1        0.0237
      6 C           3.5894   -1.6055   22.0536 C.3     1  UNL1        0.0201
      7 C           2.2073   -0.1919   20.3679 C.ar    1  UNL1       -0.0225
      8 C           1.7828    0.0802   18.9552 C.ar    1  UNL1       -0.0041
      9 C           1.0041    1.3209   18.6319 C.ar    1  UNL1        0.0042
     10 C           0.6499    2.2893   19.7212 C.ar    1  UNL1        0.0536
     11 C           1.0744    2.0171   21.1339 C.ar    1  UNL1        0.0042
     12 C           1.8530    0.7765   21.4573 C.ar    1  UNL1       -0.0041
     13 C          -0.1288    3.5298   19.3978 C.2     1  UNL1        0.2490
     14 O           0.5014    4.6197   18.5822 O.2     1  UNL1       -0.2699
     15 N          -1.5377    3.6806   19.8900 N.am    1  UNL1       -0.2752
     16 C          -2.4734    2.8359   20.7030 C.3     1  UNL1        0.1009
     17 C          -3.5302    3.8939   20.5861 C.3     1  UNL1        0.0762
     18 C          -2.5946    4.7387   19.7731 C.3     1  UNL1        0.1009
     19 C          -4.9391    4.0447   21.0783 C.2     1  UNL1        0.0533
     20 O          -5.2077    4.2078   22.5450 O.co2   1  UNL1       -0.5491
     21 O          -6.0793    4.0324   20.1038 O.co2   1  UNL1       -0.5491
     22 N           4.9715   -3.0191   23.7393 N.3     1  UNL1       -0.2962
     23 H           4.5917   -2.2762   24.3261 H       1  UNL1        0.1235
     24 C           7.1263   -1.7611   24.4636 C.3     1  UNL1        0.0220
     25 C           6.4615   -2.9862   23.9093 C.3     1  UNL1        0.0768
     26 C           7.2867   -4.1784   23.5250 C.ar    1  UNL1       -0.0080
     27 C           7.9605   -4.2239   22.1857 C.ar    1  UNL1       -0.0030
     28 C           8.7857   -5.4161   21.8014 C.ar    1  UNL1       -0.0003
     29 C           8.9372   -6.5628   22.7564 C.ar    1  UNL1       -0.0000
     30 C           8.2634   -6.5173   24.0959 C.ar    1  UNL1       -0.0003
     31 C           8.4149   -7.6639   25.0510 C.ar    1  UNL1       -0.0000
     32 C           7.7412   -7.6184   26.3903 C.ar    1  UNL1       -0.0000
     33 C           6.9160   -6.4262   26.7746 C.ar    1  UNL1       -0.0000
     34 C           6.7645   -5.2795   25.8196 C.ar    1  UNL1       -0.0003
     35 C           7.4382   -5.3251   24.4802 C.ar    1  UNL1       -0.0027
@<TRIPOS>UNITY_ATOM_ATTR
20 1
charge -1
@<TRIPOS>BOND
     1    25    24    1
     2    25    22    1
     3     1    22    1
     4     1     2    1
     5     2     3    1
     6     3     4    1
     7     4     5    1
     8     5     7    1
     9     7     8   ar
    10     8     9   ar
    11     9    10   ar
    12    10    13    1
    13    13    14    2
    14    13    15   am
    15    15    16    1
    16    16    17    1
    17    17    19    1
    18    19    20   ar
    19    19    21   ar
    20    17    18    1
    21    10    11   ar
    22    11    12   ar
    23     5     6    1
    24    25    26    1
    25    26    27   ar
    26    27    28   ar
    27    28    29   ar
    28    29    30   ar
    29    30    31   ar
    30    31    32   ar
    31    32    33   ar
    32    33    34   ar
    33    34    35   ar
    34     6     1    1
    35    35    26   ar
    36    12     7   ar
    37    35    30   ar
    38    18    15    1
    39    22    23    1
