@<TRIPOS>MOLECULE
*****
 41 44 0 0 0
SMALL
GASTEIGER

@<TRIPOS>ATOM
      1 C           5.1608   -1.1579   28.0947 C.3     1  UNL1        0.0562
      2 C           6.0199   -2.3780   27.9418 C.3     1  UNL1        0.0762
      3 C           7.1660   -2.6108   28.8811 C.3     1  UNL1        0.0214
      4 N           5.7330   -3.3653   26.8496 N.am    1  UNL1       -0.2902
      5 C           6.5564   -3.3571   25.5958 C.2     1  UNL1        0.3044
      6 O           7.6667   -2.3616   25.4342 O.2     1  UNL1       -0.2525
      7 N           6.2694   -4.3444   24.5036 N.am    1  UNL1       -0.2683
      8 H           5.0042   -4.0187   26.9557 H       1  UNL1        0.1509
      9 H           5.5407   -4.9977   24.6097 H       1  UNL1        0.1564
     10 C           7.0928   -4.3362   23.2498 C.ar    1  UNL1        0.0517
     11 C           8.4410   -4.9935   23.2336 C.ar    1  UNL1        0.0147
     12 C           9.2643   -4.9853   21.9798 C.ar    1  UNL1        0.0014
     13 C           8.7394   -4.3197   20.7422 C.ar    1  UNL1        0.0032
     14 C           7.3913   -3.6623   20.7584 C.ar    1  UNL1        0.0386
     15 C           6.5680   -3.6706   22.0122 C.ar    1  UNL1        0.0178
     16 C           6.8665   -2.9968   19.5209 C.ar    1  UNL1        0.1839
     17 N           7.5269   -1.8752   18.7754 N.ar    1  UNL1       -0.1081
     18 N           6.6577   -1.5211   17.6053 N.ar    1  UNL1       -0.0227
     19 N           5.4600   -2.4239   17.6276 N.ar    1  UNL1       -0.0429
     20 N           5.5891   -3.3359   18.8116 N.ar    1  UNL1       -0.2113
     21 C           4.6121   -4.4002   19.2152 C.3     1  UNL1        0.1573
     22 C           4.0674   -0.8818   27.1057 C.3     1  UNL1        0.1346
     23 N           4.4098   -0.5168   25.6915 N.3     1  UNL1       -0.2584
     24 C           5.4120    0.5652   25.4179 C.3     1  UNL1        0.0735
     25 C           5.7543    0.9301   24.0038 C.3     1  UNL1        0.0174
     26 C           5.0945    0.2130   22.8634 C.3     1  UNL1        0.0031
     27 C           4.0923   -0.8690   23.1371 C.3     1  UNL1        0.0204
     28 C           3.7500   -1.2339   24.5512 C.3     1  UNL1        0.0738
     29 C           3.4325   -1.5860   21.9967 C.3     1  UNL1        0.0277
     30 C           2.6859   -0.8088   20.9535 C.ar    1  UNL1       -0.0220
     31 C           1.3138   -0.2803   21.2508 C.ar    1  UNL1       -0.0020
     32 C           0.5672    0.4969   20.2076 C.ar    1  UNL1        0.0293
     33 C           1.1925    0.7457   18.8670 C.ar    1  UNL1        0.1401
     34 F           0.4458    1.5230   17.8237 F       1  UNL1       -0.2042
     35 C           2.5645    0.2173   18.5697 C.ar    1  UNL1        0.0293
     36 C           3.3112   -0.5600   19.6130 C.ar    1  UNL1       -0.0020
     37 C           0.5450    0.1020   28.6466 C.3     1  UNL1        0.0946
     38 C           1.9808    0.1909   28.2216 C.2     1  UNL1        0.2238
     39 O           2.7656    1.4411   28.4875 O.2     1  UNL1       -0.2751
     40 N           2.6316   -0.9706   27.5307 N.am    1  UNL1       -0.2930
     41 H           2.1165   -1.7912   27.3561 H       1  UNL1        0.1506
@<TRIPOS>BOND
     1    37    38    1
     2    38    39    2
     3    38    40   am
     4    40    22    1
     5    22     1    1
     6     1     2    1
     7     2     3    1
     8     2     4    1
     9     4     5   am
    10     5     6    2
    11     5     7   am
    12     7    10    1
    13    10    11   ar
    14    11    12   ar
    15    12    13   ar
    16    13    14   ar
    17    14    16    1
    18    16    17   ar
    19    17    18   ar
    20    18    19   ar
    21    19    20   ar
    22    20    21    1
    23    14    15   ar
    24    22    23    1
    25    23    24    1
    26    24    25    1
    27    25    26    1
    28    26    27    1
    29    27    29    1
    30    29    30    1
    31    30    31   ar
    32    31    32   ar
    33    32    33   ar
    34    33    34    1
    35    33    35   ar
    36    35    36   ar
    37    27    28    1
    38    15    10   ar
    39    28    23    1
    40    20    16   ar
    41    36    30   ar
    42    40    41    1
    43     4     8    1
    44     7     9    1
@<TRIPOS>MOLECULE
*****
 41 44 0 0 0
SMALL
GASTEIGER

@<TRIPOS>ATOM
      1 C          -1.6207    4.7380   22.3975 C.3     1  UNL1        0.0562
      2 C          -2.1086    4.1250   21.1184 C.3     1  UNL1        0.0762
      3 C          -2.7975    4.9764   20.0935 C.3     1  UNL1        0.0214
      4 N          -1.9075    2.6604   20.8642 N.am    1  UNL1       -0.2902
      5 C          -0.5737    2.1562   20.3985 C.2     1  UNL1        0.3044
      6 O           0.5590    3.1165   20.1870 O.2     1  UNL1       -0.2525
      7 N          -0.3727    0.6917   20.1442 N.am    1  UNL1       -0.2683
      8 H          -2.6510    2.0301   21.0030 H       1  UNL1        0.1509
      9 H          -1.1161    0.0613   20.2830 H       1  UNL1        0.1564
     10 C           0.9611    0.1874   19.6785 C.ar    1  UNL1        0.0517
     11 C           1.5556    0.7068   18.4031 C.ar    1  UNL1        0.0147
     12 C           2.8893    0.2026   17.9374 C.ar    1  UNL1        0.0014
     13 C           3.6286   -0.8211   18.7472 C.ar    1  UNL1        0.0032
     14 C           3.0341   -1.3405   20.0226 C.ar    1  UNL1        0.0386
     15 C           1.7003   -0.8362   20.4883 C.ar    1  UNL1        0.0178
     16 C           3.7733   -2.3641   20.8324 C.ar    1  UNL1        0.1839
     17 N           4.3587   -2.1536   22.1973 N.ar    1  UNL1       -0.1081
     18 N           5.0041   -3.4373   22.6280 N.ar    1  UNL1       -0.0227
     19 N           4.8176   -4.4413   21.5292 N.ar    1  UNL1       -0.0429
     20 N           4.0569   -3.7779   20.4195 N.ar    1  UNL1       -0.2113
     21 C           3.6511   -4.4165   19.1243 C.3     1  UNL1        0.1573
     22 C          -2.0192    4.1416   23.7149 C.3     1  UNL1        0.1346
     23 N          -1.0902    3.2016   24.4244 N.3     1  UNL1       -0.2584
     24 C           0.1961    2.7856   23.7745 C.3     1  UNL1        0.0735
     25 C           1.1251    1.8457   24.4840 C.3     1  UNL1        0.0174
     26 C           0.7678    1.3218   25.8434 C.3     1  UNL1        0.0031
     27 C          -0.5185    1.7378   26.4933 C.3     1  UNL1        0.0204
     28 C          -1.4474    2.6777   25.7837 C.3     1  UNL1        0.0738
     29 C          -0.8757    1.2139   27.8526 C.3     1  UNL1        0.0277
     30 C           0.1921    1.0293   28.8897 C.ar    1  UNL1       -0.0220
     31 C           0.4916    2.1315   29.8622 C.ar    1  UNL1       -0.0020
     32 C           1.5594    1.9470   30.8993 C.ar    1  UNL1        0.0293
     33 C           2.3277    0.6603   30.9641 C.ar    1  UNL1        0.1401
     34 F           3.3956    0.4758   32.0013 F       1  UNL1       -0.2042
     35 C           2.0282   -0.4419   29.9917 C.ar    1  UNL1        0.0293
     36 C           0.9603   -0.2573   28.9545 C.ar    1  UNL1       -0.0020
     37 C          -5.9077    4.0875   24.5068 C.3     1  UNL1        0.0946
     38 C          -4.5801    3.7440   23.8989 C.2     1  UNL1        0.2238
     39 O          -4.4858    2.6593   22.8672 O.2     1  UNL1       -0.2751
     40 N          -3.3468    4.4852   24.3228 N.am    1  UNL1       -0.2930
     41 H          -3.4087    5.1971   25.0000 H       1  UNL1        0.1506
@<TRIPOS>BOND
     1    37    38    1
     2    38    39    2
     3    38    40   am
     4    40    22    1
     5    22     1    1
     6     1     2    1
     7     2     3    1
     8     2     4    1
     9     4     5   am
    10     5     6    2
    11     5     7   am
    12     7    10    1
    13    10    11   ar
    14    11    12   ar
    15    12    13   ar
    16    13    14   ar
    17    14    16    1
    18    16    17   ar
    19    17    18   ar
    20    18    19   ar
    21    19    20   ar
    22    20    21    1
    23    14    15   ar
    24    22    23    1
    25    23    24    1
    26    24    25    1
    27    25    26    1
    28    26    27    1
    29    27    29    1
    30    29    30    1
    31    30    31   ar
    32    31    32   ar
    33    32    33   ar
    34    33    34    1
    35    33    35   ar
    36    35    36   ar
    37    27    28    1
    38    15    10   ar
    39    28    23    1
    40    20    16   ar
    41    36    30   ar
    42    40    41    1
    43     4     8    1
    44     7     9    1
@<TRIPOS>MOLECULE
*****
 41 44 0 0 0
SMALL
GASTEIGER

@<TRIPOS>ATOM
      1 C          -1.5609    5.2009   21.2148 C.3     1  UNL1        0.0562
      2 C          -1.5140    3.9157   21.9868 C.3     1  UNL1        0.0762
      3 C          -1.4876    3.9422   23.4863 C.3     1  UNL1        0.0214
      4 N          -1.4937    2.6041   21.2594 N.am    1  UNL1       -0.2902
      5 C          -0.1905    2.0240   20.7954 C.2     1  UNL1        0.3044
      6 O           1.0923    2.7555   21.0588 O.2     1  UNL1       -0.2525
      7 N          -0.1701    0.7123   20.0679 N.am    1  UNL1       -0.2683
      8 H          -2.3356    2.1240   21.0865 H       1  UNL1        0.1509
      9 H          -1.0121    0.2322   19.8950 H       1  UNL1        0.1564
     10 C           1.1330    0.1322   19.6039 C.ar    1  UNL1        0.0517
     11 C           1.7094    0.5449   18.2820 C.ar    1  UNL1        0.0147
     12 C           3.0125   -0.0352   17.8181 C.ar    1  UNL1        0.0014
     13 C           3.7392   -1.0281   18.6760 C.ar    1  UNL1        0.0032
     14 C           3.1629   -1.4409   19.9978 C.ar    1  UNL1        0.0386
     15 C           1.8598   -0.8607   20.4618 C.ar    1  UNL1        0.0178
     16 C           3.8896   -2.4338   20.8557 C.ar    1  UNL1        0.1839
     17 N           4.4659   -2.1694   22.2152 N.ar    1  UNL1       -0.1081
     18 N           5.1001   -3.4376   22.7045 N.ar    1  UNL1       -0.0227
     19 N           4.9158   -4.4858   21.6474 N.ar    1  UNL1       -0.0429
     20 N           4.1677   -3.8654   20.5049 N.ar    1  UNL1       -0.2113
     21 C           3.7679   -4.5555   19.2345 C.3     1  UNL1        0.1573
     22 C          -2.2106    5.2408   19.8634 C.3     1  UNL1        0.1346
     23 N          -3.6231    4.7644   19.6960 N.3     1  UNL1       -0.2584
     24 C          -4.0674    4.1797   18.3881 C.3     1  UNL1        0.0735
     25 C          -5.4799    3.7034   18.2207 C.3     1  UNL1        0.0174
     26 C          -6.4480    3.8117   19.3613 C.3     1  UNL1        0.0031
     27 C          -6.0037    4.3963   20.6693 C.3     1  UNL1        0.0204
     28 C          -4.5913    4.8726   20.8366 C.3     1  UNL1        0.0738
     29 C          -6.9719    4.5046   21.8099 C.3     1  UNL1        0.0277
     30 C          -6.4643    4.5967   23.2183 C.ar    1  UNL1       -0.0220
     31 C          -5.4845    3.5828   23.7303 C.ar    1  UNL1       -0.0020
     32 C          -4.9769    3.6749   25.1387 C.ar    1  UNL1        0.0293
     33 C          -5.4490    4.7809   26.0353 C.ar    1  UNL1        0.1401
     34 F          -4.9413    4.8730   27.4438 F       1  UNL1       -0.2042
     35 C          -6.4287    5.7948   25.5234 C.ar    1  UNL1        0.0293
     36 C          -6.9364    5.7027   24.1149 C.ar    1  UNL1       -0.0020
     37 C           0.1173    5.3289   16.6505 C.3     1  UNL1        0.0946
     38 C          -0.6453    4.8126   17.8345 C.2     1  UNL1        0.2238
     39 O          -0.6054    3.3520   18.1735 O.2     1  UNL1       -0.2751
     40 N          -1.4480    5.7570   18.6794 N.am    1  UNL1       -0.2930
     41 H          -1.4742    6.7157   18.4569 H       1  UNL1        0.1506
@<TRIPOS>BOND
     1    37    38    1
     2    38    39    2
     3    38    40   am
     4    40    22    1
     5    22     1    1
     6     1     2    1
     7     2     3    1
     8     2     4    1
     9     4     5   am
    10     5     6    2
    11     5     7   am
    12     7    10    1
    13    10    11   ar
    14    11    12   ar
    15    12    13   ar
    16    13    14   ar
    17    14    16    1
    18    16    17   ar
    19    17    18   ar
    20    18    19   ar
    21    19    20   ar
    22    20    21    1
    23    14    15   ar
    24    22    23    1
    25    23    24    1
    26    24    25    1
    27    25    26    1
    28    26    27    1
    29    27    29    1
    30    29    30    1
    31    30    31   ar
    32    31    32   ar
    33    32    33   ar
    34    33    34    1
    35    33    35   ar
    36    35    36   ar
    37    27    28    1
    38    15    10   ar
    39    28    23    1
    40    20    16   ar
    41    36    30   ar
    42    40    41    1
    43     4     8    1
    44     7     9    1
@<TRIPOS>MOLECULE
*****
 41 44 0 0 0
SMALL
GASTEIGER

@<TRIPOS>ATOM
      1 C         -12.1714  -16.4582   21.4787 C.3     1  UNL1        0.0562
      2 C         -11.5183  -16.6263   20.1389 C.3     1  UNL1        0.0762
      3 C         -11.6862  -15.5721   19.0852 C.3     1  UNL1        0.0214
      4 N         -10.6973  -17.8486   19.8528 N.am    1  UNL1       -0.2902
      5 C          -9.3394  -18.0018   20.4715 C.2     1  UNL1        0.3044
      6 O          -8.8026  -16.9327   21.3764 O.2     1  UNL1       -0.2525
      7 N          -8.5185  -19.2241   20.1854 N.am    1  UNL1       -0.2683
      8 H         -11.0497  -18.5503   19.2589 H       1  UNL1        0.1509
      9 H          -8.8708  -19.9258   19.5915 H       1  UNL1        0.1564
     10 C          -7.1606  -19.3773   20.8042 C.ar    1  UNL1        0.0517
     11 C          -7.0145  -20.0560   22.1338 C.ar    1  UNL1        0.0147
     12 C          -5.6567  -20.2091   22.7525 C.ar    1  UNL1        0.0014
     13 C          -4.4449  -19.6837   22.0415 C.ar    1  UNL1        0.0032
     14 C          -4.5910  -19.0051   20.7118 C.ar    1  UNL1        0.0386
     15 C          -5.9488  -18.8519   20.0931 C.ar    1  UNL1        0.0178
     16 C          -3.3792  -18.4796   20.0008 C.ar    1  UNL1        0.1839
     17 N          -2.9326  -18.8604   18.6204 N.ar    1  UNL1       -0.1081
     18 N          -1.6787  -18.0972   18.3118 N.ar    1  UNL1       -0.0227
     19 N          -1.3503  -17.2447   19.5015 N.ar    1  UNL1       -0.0429
     20 N          -2.4013  -17.4811   20.5454 N.ar    1  UNL1       -0.2113
     21 C          -2.4634  -16.8326   21.8965 C.3     1  UNL1        0.1573
     22 C         -12.5549  -17.6650   22.2829 C.3     1  UNL1        0.1346
     23 N         -11.5232  -18.3746   23.1089 N.3     1  UNL1       -0.2584
     24 C         -11.0674  -19.7498   22.7202 C.3     1  UNL1        0.0735
     25 C         -10.0358  -20.4593   23.5462 C.3     1  UNL1        0.0174
     26 C          -9.4601  -19.7937   24.7609 C.3     1  UNL1        0.0031
     27 C          -9.9159  -18.4186   25.1496 C.3     1  UNL1        0.0204
     28 C         -10.9475  -17.7091   24.3236 C.3     1  UNL1        0.0738
     29 C          -9.3402  -17.7530   26.3643 C.3     1  UNL1        0.0277
     30 C          -8.1694  -16.8255   26.2274 C.ar    1  UNL1       -0.0220
     31 C          -7.6535  -16.4649   24.8658 C.ar    1  UNL1       -0.0020
     32 C          -6.4827  -15.5374   24.7288 C.ar    1  UNL1        0.0293
     33 C          -5.8278  -14.9703   25.9533 C.ar    1  UNL1        0.1401
     34 F          -4.6569  -14.0426   25.8163 F       1  UNL1       -0.2042
     35 C          -6.3437  -15.3307   27.3149 C.ar    1  UNL1        0.0293
     36 C          -7.5146  -16.2584   27.4519 C.ar    1  UNL1       -0.0020
     37 C         -16.1177  -18.8931   23.5270 C.3     1  UNL1        0.0946
     38 C         -14.7027  -18.3958   23.5489 C.2     1  UNL1        0.2238
     39 O         -14.0205  -18.1323   24.8585 O.2     1  UNL1       -0.2751
     40 N         -13.9699  -18.1622   22.2610 N.am    1  UNL1       -0.2930
     41 H         -14.4177  -18.3352   21.4015 H       1  UNL1        0.1506
@<TRIPOS>BOND
     1    37    38    1
     2    38    39    2
     3    38    40   am
     4    40    22    1
     5    22     1    1
     6     1     2    1
     7     2     3    1
     8     2     4    1
     9     4     5   am
    10     5     6    2
    11     5     7   am
    12     7    10    1
    13    10    11   ar
    14    11    12   ar
    15    12    13   ar
    16    13    14   ar
    17    14    16    1
    18    16    17   ar
    19    17    18   ar
    20    18    19   ar
    21    19    20   ar
    22    20    21    1
    23    14    15   ar
    24    22    23    1
    25    23    24    1
    26    24    25    1
    27    25    26    1
    28    26    27    1
    29    27    29    1
    30    29    30    1
    31    30    31   ar
    32    31    32   ar
    33    32    33   ar
    34    33    34    1
    35    33    35   ar
    36    35    36   ar
    37    27    28    1
    38    15    10   ar
    39    28    23    1
    40    20    16   ar
    41    36    30   ar
    42    40    41    1
    43     4     8    1
    44     7     9    1
@<TRIPOS>MOLECULE
*****
 41 44 0 0 0
SMALL
GASTEIGER

@<TRIPOS>ATOM
      1 C          -2.0440    5.4530   21.3674 C.3     1  UNL1        0.0562
      2 C          -1.8063    4.6753   20.1070 C.3     1  UNL1        0.0762
      3 C          -1.6586    5.3941   18.7988 C.3     1  UNL1        0.0214
      4 N          -1.7162    3.1788   20.1547 N.am    1  UNL1       -0.2902
      5 C          -0.4509    2.5178   20.6154 C.2     1  UNL1        0.3044
      6 O           0.7244    3.3535   21.0282 O.2     1  UNL1       -0.2525
      7 N          -0.3608    1.0213   20.6632 N.am    1  UNL1       -0.2683
      8 H          -2.4876    2.6303   19.8838 H       1  UNL1        0.1509
      9 H          -1.1322    0.4729   20.3922 H       1  UNL1        0.1564
     10 C           0.9045    0.3604   21.1238 C.ar    1  UNL1        0.0517
     11 C           1.3849    0.5586   22.5309 C.ar    1  UNL1        0.0147
     12 C           2.6502   -0.1023   22.9914 C.ar    1  UNL1        0.0014
     13 C           3.4351   -0.9614   22.0449 C.ar    1  UNL1        0.0032
     14 C           2.9547   -1.1597   20.6379 C.ar    1  UNL1        0.0386
     15 C           1.6894   -0.4988   20.1773 C.ar    1  UNL1        0.0178
     16 C           3.7395   -2.0188   19.6914 C.ar    1  UNL1        0.1839
     17 N           3.7531   -3.5186   19.6667 N.ar    1  UNL1       -0.1081
     18 N           4.6706   -3.9557   18.5634 N.ar    1  UNL1       -0.0227
     19 N           5.2241   -2.7262   17.9064 N.ar    1  UNL1       -0.0429
     20 N           4.6487   -1.5291   18.6035 N.ar    1  UNL1       -0.2113
     21 C           4.9326   -0.0943   18.2710 C.3     1  UNL1        0.1573
     22 C          -3.2817    5.2070   22.1783 C.3     1  UNL1        0.1346
     23 N          -3.1698    4.6606   23.5708 N.3     1  UNL1       -0.2584
     24 C          -4.1874    5.0347   24.6073 C.3     1  UNL1        0.0735
     25 C          -4.0754    4.4883   25.9997 C.3     1  UNL1        0.0174
     26 C          -2.9458    3.5677   26.3556 C.3     1  UNL1        0.0031
     27 C          -1.9282    3.1936   25.3191 C.3     1  UNL1        0.0204
     28 C          -2.0402    3.7400   23.9267 C.3     1  UNL1        0.0738
     29 C          -0.7986    2.2731   25.6749 C.3     1  UNL1        0.0277
     30 C          -0.3909    2.1055   27.1087 C.ar    1  UNL1       -0.0220
     31 C          -0.8243    0.8907   27.8746 C.ar    1  UNL1       -0.0020
     32 C          -0.4167    0.7232   29.3084 C.ar    1  UNL1        0.0293
     33 C           0.4244    1.7703   29.9762 C.ar    1  UNL1        0.1401
     34 F           0.8321    1.6027   31.4101 F       1  UNL1       -0.2042
     35 C           0.8578    2.9850   29.2104 C.ar    1  UNL1        0.0293
     36 C           0.4502    3.1526   27.7766 C.ar    1  UNL1       -0.0020
     37 C          -6.7512    4.7299   20.3115 C.3     1  UNL1        0.0946
     38 C          -5.4016    4.4295   20.8930 C.2     1  UNL1        0.2238
     39 O          -4.8221    3.0514   20.7709 O.2     1  UNL1       -0.2751
     40 N          -4.6314    5.5074   21.5967 N.am    1  UNL1       -0.2930
     41 H          -5.0117    6.4119   21.6769 H       1  UNL1        0.1506
@<TRIPOS>BOND
     1    37    38    1
     2    38    39    2
     3    38    40   am
     4    40    22    1
     5    22     1    1
     6     1     2    1
     7     2     3    1
     8     2     4    1
     9     4     5   am
    10     5     6    2
    11     5     7   am
    12     7    10    1
    13    10    11   ar
    14    11    12   ar
    15    12    13   ar
    16    13    14   ar
    17    14    16    1
    18    16    17   ar
    19    17    18   ar
    20    18    19   ar
    21    19    20   ar
    22    20    21    1
    23    14    15   ar
    24    22    23    1
    25    23    24    1
    26    24    25    1
    27    25    26    1
    28    26    27    1
    29    27    29    1
    30    29    30    1
    31    30    31   ar
    32    31    32   ar
    33    32    33   ar
    34    33    34    1
    35    33    35   ar
    36    35    36   ar
    37    27    28    1
    38    15    10   ar
    39    28    23    1
    40    20    16   ar
    41    36    30   ar
    42    40    41    1
    43     4     8    1
    44     7     9    1
@<TRIPOS>MOLECULE
*****
 41 44 0 0 0
SMALL
GASTEIGER

@<TRIPOS>ATOM
      1 C           2.3820   -0.5206   30.1567 C.3     1  UNL1        0.0562
      2 C           3.0688   -0.5565   28.8236 C.3     1  UNL1        0.0762
      3 C           4.5670   -0.5589   28.7516 C.3     1  UNL1        0.0214
      4 N           2.2573   -0.5901   27.5625 N.am    1  UNL1       -0.2902
      5 C           1.6071    0.6631   27.0555 C.2     1  UNL1        0.3044
      6 O           1.7685    1.9497   27.8095 O.2     1  UNL1       -0.2525
      7 N           0.7956    0.6295   25.7944 N.am    1  UNL1       -0.2683
      8 H           2.1514   -1.4345   27.0676 H       1  UNL1        0.1509
      9 H           0.6897   -0.2149   25.2995 H       1  UNL1        0.1564
     10 C           0.1454    1.8826   25.2873 C.ar    1  UNL1        0.0517
     11 C           0.7256    2.6038   24.1070 C.ar    1  UNL1        0.0147
     12 C           0.0754    3.8569   23.6000 C.ar    1  UNL1        0.0014
     13 C          -1.1550    4.3887   24.2733 C.ar    1  UNL1        0.0032
     14 C          -1.7351    3.6675   25.4537 C.ar    1  UNL1        0.0386
     15 C          -1.0849    2.4144   25.9607 C.ar    1  UNL1        0.0178
     16 C          -2.9655    4.1993   26.1270 C.ar    1  UNL1        0.1839
     17 N          -4.3747    3.7568   25.8656 N.ar    1  UNL1       -0.1081
     18 N          -5.2829    4.5510   26.7570 N.ar    1  UNL1       -0.0227
     19 N          -4.4349    5.4844   27.5693 N.ar    1  UNL1       -0.0429
     20 N          -3.0027    5.2670   27.1799 N.ar    1  UNL1       -0.2113
     21 C          -1.8161    5.9903   27.7444 C.3     1  UNL1        0.1573
     22 C           2.7559    0.5251   31.1650 C.3     1  UNL1        0.1346
     23 N           3.4295    0.1262   32.4446 N.3     1  UNL1       -0.2584
     24 C           3.9189   -1.2798   32.6279 C.3     1  UNL1        0.0735
     25 C           4.5924   -1.6786   33.9074 C.3     1  UNL1        0.0174
     26 C           4.7766   -0.6715   35.0037 C.3     1  UNL1        0.0031
     27 C           4.2872    0.7345   34.8203 C.3     1  UNL1        0.0204
     28 C           3.6137    1.1333   33.5408 C.3     1  UNL1        0.0738
     29 C           4.4714    1.7417   35.9165 C.3     1  UNL1        0.0277
     30 C           3.3921    1.9438   36.9384 C.ar    1  UNL1       -0.0220
     31 C           2.5629    3.1936   36.9164 C.ar    1  UNL1       -0.0020
     32 C           1.4836    3.3957   37.9383 C.ar    1  UNL1        0.0293
     33 C           1.2336    2.3481   38.9823 C.ar    1  UNL1        0.1401
     34 F           0.1542    2.5502   40.0042 F       1  UNL1       -0.2042
     35 C           2.0628    1.0983   39.0044 C.ar    1  UNL1        0.0293
     36 C           3.1421    0.8962   37.9825 C.ar    1  UNL1       -0.0020
     37 C           0.7592    3.9339   30.7870 C.3     1  UNL1        0.0946
     38 C           1.0588    2.4893   31.0582 C.2     1  UNL1        0.2238
     39 O          -0.0390    1.5646   31.4936 O.2     1  UNL1       -0.2751
     40 N           2.4563    1.9696   30.8939 N.am    1  UNL1       -0.2930
     41 H           3.1768    2.5766   30.6081 H       1  UNL1        0.1506
@<TRIPOS>BOND
     1    37    38    1
     2    38    39    2
     3    38    40   am
     4    40    22    1
     5    22     1    1
     6     1     2    1
     7     2     3    1
     8     2     4    1
     9     4     5   am
    10     5     6    2
    11     5     7   am
    12     7    10    1
    13    10    11   ar
    14    11    12   ar
    15    12    13   ar
    16    13    14   ar
    17    14    16    1
    18    16    17   ar
    19    17    18   ar
    20    18    19   ar
    21    19    20   ar
    22    20    21    1
    23    14    15   ar
    24    22    23    1
    25    23    24    1
    26    24    25    1
    27    25    26    1
    28    26    27    1
    29    27    29    1
    30    29    30    1
    31    30    31   ar
    32    31    32   ar
    33    32    33   ar
    34    33    34    1
    35    33    35   ar
    36    35    36   ar
    37    27    28    1
    38    15    10   ar
    39    28    23    1
    40    20    16   ar
    41    36    30   ar
    42    40    41    1
    43     4     8    1
    44     7     9    1
@<TRIPOS>MOLECULE
*****
 41 44 0 0 0
SMALL
GASTEIGER

@<TRIPOS>ATOM
      1 C          -2.2507    5.2441   21.8103 C.3     1  UNL1        0.0562
      2 C          -2.3835    4.3566   20.6084 C.3     1  UNL1        0.0762
      3 C          -2.8198    4.9337   19.2945 C.3     1  UNL1        0.0214
      4 N          -2.0799    2.8919   20.7204 N.am    1  UNL1       -0.2902
      5 C          -0.7716    2.3566   20.2186 C.2     1  UNL1        0.3044
      6 O           0.2332    3.2860   19.6049 O.2     1  UNL1       -0.2525
      7 N          -0.4680    0.8920   20.3306 N.am    1  UNL1       -0.2683
      8 H          -2.7394    2.2819   21.1232 H       1  UNL1        0.1509
      9 H          -1.1275    0.2820   20.7334 H       1  UNL1        0.1564
     10 C           0.8403    0.3566   19.8288 C.ar    1  UNL1        0.0517
     11 C           1.4099    0.8593   18.5354 C.ar    1  UNL1        0.0147
     12 C           2.7182    0.3240   18.0337 C.ar    1  UNL1        0.0014
     13 C           3.4569   -0.7140   18.8254 C.ar    1  UNL1        0.0032
     14 C           2.8874   -1.2167   20.1188 C.ar    1  UNL1        0.0386
     15 C           1.5791   -0.6814   20.6205 C.ar    1  UNL1        0.0178
     16 C           3.6262   -2.2547   20.9105 C.ar    1  UNL1        0.1839
     17 N           4.1798   -3.5423   20.3763 N.ar    1  UNL1       -0.1081
     18 N           4.8368   -4.2707   21.5110 N.ar    1  UNL1       -0.0227
     19 N           4.6893   -3.4332   22.7467 N.ar    1  UNL1       -0.0429
     20 N           3.9411   -2.1873   22.3755 N.ar    1  UNL1       -0.2113
     21 C           3.5726   -1.0700   23.3061 C.3     1  UNL1        0.1573
     22 C          -3.0860    4.9861   23.0292 C.3     1  UNL1        0.1346
     23 N          -2.4357    4.5280   24.3009 N.3     1  UNL1       -0.2584
     24 C          -2.5649    5.3511   25.5482 C.3     1  UNL1        0.0735
     25 C          -1.9146    4.8930   26.8198 C.3     1  UNL1        0.0174
     26 C          -1.1351    3.6117   26.8442 C.3     1  UNL1        0.0031
     27 C          -1.0058    2.7885   25.5970 C.3     1  UNL1        0.0204
     28 C          -1.6561    3.2467   24.3253 C.3     1  UNL1        0.0738
     29 C          -0.2262    1.5073   25.6214 C.3     1  UNL1        0.0277
     30 C           0.3591    1.0099   26.9098 C.ar    1  UNL1       -0.0220
     31 C          -0.5200    0.3389   27.9233 C.ar    1  UNL1       -0.0020
     32 C           0.0653   -0.1585   29.2117 C.ar    1  UNL1        0.0293
     33 C           1.5296    0.0151   29.4867 C.ar    1  UNL1        0.1401
     34 F           2.1149   -0.4823   30.7751 F       1  UNL1       -0.2042
     35 C           2.4087    0.6861   28.4733 C.ar    1  UNL1        0.0293
     36 C           1.8234    1.1835   27.1848 C.ar    1  UNL1       -0.0020
     37 C          -6.9565    4.2386   22.5705 C.3     1  UNL1        0.0946
     38 C          -5.4709    4.0385   22.6233 C.2     1  UNL1        0.2238
     39 O          -4.8844    2.6910   22.3231 O.2     1  UNL1       -0.2751
     40 N          -4.5717    5.1861   22.9763 N.am    1  UNL1       -0.2930
     41 H          -4.9566    6.0706   23.1733 H       1  UNL1        0.1506
@<TRIPOS>BOND
     1    37    38    1
     2    38    39    2
     3    38    40   am
     4    40    22    1
     5    22     1    1
     6     1     2    1
     7     2     3    1
     8     2     4    1
     9     4     5   am
    10     5     6    2
    11     5     7   am
    12     7    10    1
    13    10    11   ar
    14    11    12   ar
    15    12    13   ar
    16    13    14   ar
    17    14    16    1
    18    16    17   ar
    19    17    18   ar
    20    18    19   ar
    21    19    20   ar
    22    20    21    1
    23    14    15   ar
    24    22    23    1
    25    23    24    1
    26    24    25    1
    27    25    26    1
    28    26    27    1
    29    27    29    1
    30    29    30    1
    31    30    31   ar
    32    31    32   ar
    33    32    33   ar
    34    33    34    1
    35    33    35   ar
    36    35    36   ar
    37    27    28    1
    38    15    10   ar
    39    28    23    1
    40    20    16   ar
    41    36    30   ar
    42    40    41    1
    43     4     8    1
    44     7     9    1
@<TRIPOS>MOLECULE
*****
 41 44 0 0 0
SMALL
GASTEIGER

@<TRIPOS>ATOM
      1 C           7.9337   -2.8318   24.6034 C.3     1  UNL1        0.0562
      2 C           8.3074   -3.3979   25.9413 C.3     1  UNL1        0.0762
      3 C           8.6179   -4.8591   26.0771 C.3     1  UNL1        0.0214
      4 N           8.3707   -2.5029   27.1432 N.am    1  UNL1       -0.2902
      5 C           7.3042   -2.5831   28.1951 C.2     1  UNL1        0.3044
      6 O           6.1745   -3.5584   28.0448 O.2     1  UNL1       -0.2525
      7 N           7.3674   -1.6880   29.3971 N.am    1  UNL1       -0.2683
      8 H           9.1121   -1.8628   27.2418 H       1  UNL1        0.1509
      9 H           8.1089   -1.0479   29.4956 H       1  UNL1        0.1564
     10 C           6.3010   -1.7682   30.4489 C.ar    1  UNL1        0.0517
     11 C           6.4464   -2.7275   31.5928 C.ar    1  UNL1        0.0147
     12 C           5.3800   -2.8076   32.6446 C.ar    1  UNL1        0.0014
     13 C           4.1681   -1.9285   32.5524 C.ar    1  UNL1        0.0032
     14 C           4.0226   -0.9693   31.4084 C.ar    1  UNL1        0.0386
     15 C           5.0891   -0.8891   30.3567 C.ar    1  UNL1        0.0178
     16 C           2.8107   -0.0902   31.3163 C.ar    1  UNL1        0.1839
     17 N           1.7319   -0.1818   30.2781 N.ar    1  UNL1       -0.1081
     18 N           0.7193    0.8866   30.5662 N.ar    1  UNL1       -0.0227
     19 N           1.1722    1.6386   31.7825 N.ar    1  UNL1       -0.0429
     20 N           2.4648    1.0349   32.2460 N.ar    1  UNL1       -0.2113
     21 C           3.2701    1.4785   33.4313 C.3     1  UNL1        0.1573
     22 C           6.5184   -2.9299   24.1164 C.3     1  UNL1        0.1346
     23 N           6.2406   -3.1739   22.6626 N.3     1  UNL1       -0.2584
     24 C           7.3318   -3.6770   21.7647 C.3     1  UNL1        0.0735
     25 C           7.0540   -3.9209   20.3110 C.3     1  UNL1        0.0174
     26 C           5.6851   -3.6618   19.7552 C.3     1  UNL1        0.0031
     27 C           4.5940   -3.1588   20.6531 C.3     1  UNL1        0.0204
     28 C           4.8717   -2.9148   22.1068 C.3     1  UNL1        0.0738
     29 C           3.2250   -2.8997   20.0973 C.3     1  UNL1        0.0277
     30 C           2.8537   -1.5239   19.6290 C.ar    1  UNL1       -0.0220
     31 C           1.5782   -0.8902   20.0997 C.ar    1  UNL1       -0.0020
     32 C           1.2069    0.4856   19.6315 C.ar    1  UNL1        0.0293
     33 C           2.1111    1.2277   18.6925 C.ar    1  UNL1        0.1401
     34 F           1.7397    2.6036   18.2243 F       1  UNL1       -0.2042
     35 C           3.3865    0.5941   18.2218 C.ar    1  UNL1        0.0293
     36 C           3.7579   -0.7818   18.6900 C.ar    1  UNL1       -0.0020
     37 C           3.8550   -1.2788   26.5517 C.3     1  UNL1        0.0946
     38 C           4.9926   -1.4247   25.5850 C.2     1  UNL1        0.2238
     39 O           5.7422   -0.2114   25.1202 O.2     1  UNL1       -0.2751
     40 N           5.3807   -2.7840   25.0831 N.am    1  UNL1       -0.2930
     41 H           4.8888   -3.5803   25.3881 H       1  UNL1        0.1506
@<TRIPOS>BOND
     1    37    38    1
     2    38    39    2
     3    38    40   am
     4    40    22    1
     5    22     1    1
     6     1     2    1
     7     2     3    1
     8     2     4    1
     9     4     5   am
    10     5     6    2
    11     5     7   am
    12     7    10    1
    13    10    11   ar
    14    11    12   ar
    15    12    13   ar
    16    13    14   ar
    17    14    16    1
    18    16    17   ar
    19    17    18   ar
    20    18    19   ar
    21    19    20   ar
    22    20    21    1
    23    14    15   ar
    24    22    23    1
    25    23    24    1
    26    24    25    1
    27    25    26    1
    28    26    27    1
    29    27    29    1
    30    29    30    1
    31    30    31   ar
    32    31    32   ar
    33    32    33   ar
    34    33    34    1
    35    33    35   ar
    36    35    36   ar
    37    27    28    1
    38    15    10   ar
    39    28    23    1
    40    20    16   ar
    41    36    30   ar
    42    40    41    1
    43     4     8    1
    44     7     9    1
@<TRIPOS>MOLECULE
*****
 41 44 0 0 0
SMALL
GASTEIGER

@<TRIPOS>ATOM
      1 C           7.0172   -5.6850   29.6364 C.3     1  UNL1        0.0562
      2 C           7.4961   -5.3220   31.0108 C.3     1  UNL1        0.0762
      3 C           8.9602   -5.3731   31.3326 C.3     1  UNL1        0.0214
      4 N           6.5109   -4.9080   32.0633 N.am    1  UNL1       -0.2902
      5 C           5.9703   -3.5088   32.0757 C.2     1  UNL1        0.3044
      6 O           6.4150   -2.5237   31.0356 O.2     1  UNL1       -0.2525
      7 N           4.9850   -3.0948   33.1283 N.am    1  UNL1       -0.2683
      8 H           6.2190   -5.5546   32.7459 H       1  UNL1        0.1509
      9 H           4.6932   -3.7414   33.8109 H       1  UNL1        0.1564
     10 C           4.4445   -1.6956   33.1407 C.ar    1  UNL1        0.0517
     11 C           4.6478   -0.8237   34.3442 C.ar    1  UNL1        0.0147
     12 C           4.1072    0.5754   34.3566 C.ar    1  UNL1        0.0014
     13 C           3.3633    1.1026   33.1656 C.ar    1  UNL1        0.0032
     14 C           3.1600    0.2307   31.9621 C.ar    1  UNL1        0.0386
     15 C           3.7006   -1.1684   31.9497 C.ar    1  UNL1        0.0178
     16 C           2.4161    0.7580   30.7710 C.ar    1  UNL1        0.1839
     17 N           0.9289    0.9195   30.6609 N.ar    1  UNL1       -0.1081
     18 N           0.6224    1.4776   29.3028 N.ar    1  UNL1       -0.0227
     19 N           1.9203    1.6610   28.5734 N.ar    1  UNL1       -0.0429
     20 N           3.0288    1.2163   29.4808 N.ar    1  UNL1       -0.2113
     21 C           4.4930    1.2279   29.1552 C.3     1  UNL1        0.1573
     22 C           7.7785   -5.2212   28.4301 C.3     1  UNL1        0.1346
     23 N           7.5776   -3.8304   27.9054 N.3     1  UNL1       -0.2584
     24 C           8.7485   -2.9021   27.7736 C.3     1  UNL1        0.0735
     25 C           8.5476   -1.5113   27.2489 C.3     1  UNL1        0.0174
     26 C           7.1758   -1.0488   26.8562 C.3     1  UNL1        0.0031
     27 C           6.0049   -1.9770   26.9880 C.3     1  UNL1        0.0204
     28 C           6.2058   -3.3678   27.5126 C.3     1  UNL1        0.0738
     29 C           4.6331   -1.5144   26.5953 C.3     1  UNL1        0.0277
     30 C           4.2320   -1.4991   25.1500 C.ar    1  UNL1       -0.0220
     31 C           4.8261   -2.4928   24.1961 C.ar    1  UNL1       -0.0020
     32 C           4.4249   -2.4774   22.7509 C.ar    1  UNL1        0.0293
     33 C           3.4298   -1.4684   22.2594 C.ar    1  UNL1        0.1401
     34 F           3.0286   -1.4531   20.8141 F       1  UNL1       -0.2042
     35 C           2.8357   -0.4748   23.2132 C.ar    1  UNL1        0.0293
     36 C           3.2369   -0.4901   24.6585 C.ar    1  UNL1       -0.0020
     37 C           9.2053   -8.0529   26.0434 C.3     1  UNL1        0.0946
     38 C           8.2431   -7.1258   26.7251 C.2     1  UNL1        0.2238
     39 O           6.7834   -7.1763   26.3837 O.2     1  UNL1       -0.2751
     40 N           8.7407   -6.1483   27.7483 N.am    1  UNL1       -0.2930
     41 H           9.6988   -6.1151   27.9724 H       1  UNL1        0.1506
@<TRIPOS>BOND
     1    37    38    1
     2    38    39    2
     3    38    40   am
     4    40    22    1
     5    22     1    1
     6     1     2    1
     7     2     3    1
     8     2     4    1
     9     4     5   am
    10     5     6    2
    11     5     7   am
    12     7    10    1
    13    10    11   ar
    14    11    12   ar
    15    12    13   ar
    16    13    14   ar
    17    14    16    1
    18    16    17   ar
    19    17    18   ar
    20    18    19   ar
    21    19    20   ar
    22    20    21    1
    23    14    15   ar
    24    22    23    1
    25    23    24    1
    26    24    25    1
    27    25    26    1
    28    26    27    1
    29    27    29    1
    30    29    30    1
    31    30    31   ar
    32    31    32   ar
    33    32    33   ar
    34    33    34    1
    35    33    35   ar
    36    35    36   ar
    37    27    28    1
    38    15    10   ar
    39    28    23    1
    40    20    16   ar
    41    36    30   ar
    42    40    41    1
    43     4     8    1
    44     7     9    1
