@<TRIPOS>MOLECULE
*****
 25 27 0 0 0
SMALL
GASTEIGER

@<TRIPOS>ATOM
      1 C          -7.5687  -16.7465   22.9142 C.3     1  UNL1        0.1234
      2 C          -7.1266  -16.2127   24.2445 C.ar    1  UNL1       -0.0022
      3 C          -8.1427  -15.7064   25.2248 C.ar    1  UNL1       -0.0026
      4 C          -7.7006  -15.1727   26.5550 C.ar    1  UNL1       -0.0003
      5 C          -6.2422  -15.1453   26.9049 C.ar    1  UNL1       -0.0000
      6 C          -5.2260  -15.6516   25.9247 C.ar    1  UNL1       -0.0003
      7 C          -5.6682  -16.1853   24.5944 C.ar    1  UNL1       -0.0024
      8 C          -4.6520  -16.6916   23.6141 C.ar    1  UNL1       -0.0003
      9 C          -3.6983  -15.7355   22.9613 C.ar    1  UNL1       -0.0000
     10 C          -2.6821  -16.2417   21.9810 C.ar    1  UNL1       -0.0000
     11 C          -2.6197  -17.7042   21.6534 C.ar    1  UNL1       -0.0000
     12 C          -3.5734  -18.6604   22.3061 C.ar    1  UNL1       -0.0000
     13 C          -4.5896  -18.1541   23.2865 C.ar    1  UNL1       -0.0000
     14 C          -9.9260  -16.7719   21.8221 C.2     1  UNL1        0.4051
     15 O          -9.5679  -15.5556   21.0207 O.2     1  UNL1       -0.2262
     16 N          -8.9264  -17.3674   22.7689 N.am    1  UNL1       -0.2421
     17 C          -9.2846  -18.5837   23.5703 C.3     1  UNL1        0.0959
     18 C          -8.9173  -19.9992   23.2364 C.3     1  UNL1        0.0384
     19 C          -9.4787  -20.8884   24.3060 C.3     1  UNL1        0.0704
     20 N         -10.1929  -20.0224   25.3011 N.3     1  UNL1       -0.2960
     21 C         -10.0729  -18.5980   24.8463 C.3     1  UNL1        0.0888
     22 H          -9.7666  -20.1289   26.2216 H       1  UNL1        0.1233
     23 O         -11.2838  -17.3927   21.6768 O.3     1  UNL1       -0.4345
     24 C         -13.2816  -17.7953   23.2882 C.3     1  UNL1        0.0513
     25 C         -12.4404  -16.8609   22.4701 C.3     1  UNL1        0.2102
@<TRIPOS>BOND
     1    24    25    1
     2    25    23    1
     3    23    14    1
     4    14    15    2
     5    14    16   am
     6    16     1    1
     7     1     2    1
     8     2     3   ar
     9     3     4   ar
    10     4     5   ar
    11     5     6   ar
    12     6     7   ar
    13     7     8    1
    14     8     9   ar
    15     9    10   ar
    16    10    11   ar
    17    11    12   ar
    18    12    13   ar
    19    17    16    1
    20    17    18    1
    21    18    19    1
    22    19    20    1
    23    20    21    1
    24     7     2   ar
    25    13     8   ar
    26    21    17    1
    27    20    22    1
@<TRIPOS>MOLECULE
*****
 25 27 0 0 0
SMALL
GASTEIGER

@<TRIPOS>ATOM
      1 C          -7.3256  -16.5639   22.6853 C.3     1  UNL1        0.1234
      2 C          -7.2267  -16.1972   24.1364 C.ar    1  UNL1       -0.0022
      3 C          -5.9306  -15.6892   24.6950 C.ar    1  UNL1       -0.0026
      4 C          -5.8317  -15.3226   26.1461 C.ar    1  UNL1       -0.0003
      5 C          -7.0289  -15.4641   27.0387 C.ar    1  UNL1       -0.0000
      6 C          -8.3250  -15.9721   26.4801 C.ar    1  UNL1       -0.0003
      7 C          -8.4239  -16.3387   25.0290 C.ar    1  UNL1       -0.0024
      8 C          -9.7200  -16.8467   24.4704 C.ar    1  UNL1       -0.0003
      9 C         -10.3409  -18.0923   25.0299 C.ar    1  UNL1       -0.0000
     10 C         -11.6370  -18.6004   24.4713 C.ar    1  UNL1       -0.0000
     11 C         -12.3122  -17.8629   23.3532 C.ar    1  UNL1       -0.0000
     12 C         -11.6913  -16.6173   22.7936 C.ar    1  UNL1       -0.0000
     13 C         -10.3952  -16.1092   23.3523 C.ar    1  UNL1       -0.0000
     14 C          -5.8590  -18.6586   22.2255 C.2     1  UNL1        0.4051
     15 O          -4.6327  -17.8839   22.6076 O.2     1  UNL1       -0.2262
     16 N          -7.2055  -17.9986   22.2643 N.am    1  UNL1       -0.2421
     17 C          -8.4318  -18.7732   21.8822 C.3     1  UNL1        0.0959
     18 C          -9.3089  -18.5063   20.6950 C.3     1  UNL1        0.0384
     19 C         -10.4155  -19.5189   20.6992 C.3     1  UNL1        0.0704
     20 N         -10.2222  -20.4117   21.8890 N.3     1  UNL1       -0.2960
     21 C          -8.9962  -19.9508   22.6201 C.3     1  UNL1        0.0888
     22 H         -10.0997  -21.3765   21.5815 H       1  UNL1        0.1233
     23 O          -5.7389  -20.0933   21.8045 O.3     1  UNL1       -0.4345
     24 C          -3.9570  -20.3399   19.9300 C.3     1  UNL1        0.0513
     25 C          -5.3826  -20.4318   20.3874 C.3     1  UNL1        0.2102
@<TRIPOS>BOND
     1    24    25    1
     2    25    23    1
     3    23    14    1
     4    14    15    2
     5    14    16   am
     6    16     1    1
     7     1     2    1
     8     2     3   ar
     9     3     4   ar
    10     4     5   ar
    11     5     6   ar
    12     6     7   ar
    13     7     8    1
    14     8     9   ar
    15     9    10   ar
    16    10    11   ar
    17    11    12   ar
    18    12    13   ar
    19    17    16    1
    20    17    18    1
    21    18    19    1
    22    19    20    1
    23    20    21    1
    24     7     2   ar
    25    13     8   ar
    26    21    17    1
    27    20    22    1
@<TRIPOS>MOLECULE
*****
 25 27 0 0 0
SMALL
GASTEIGER

@<TRIPOS>ATOM
      1 C          -7.9444  -17.2361   22.0971 C.3     1  UNL1        0.1234
      2 C          -8.5149  -18.1683   21.0696 C.ar    1  UNL1       -0.0022
      3 C          -9.9747  -18.1076   20.7302 C.ar    1  UNL1       -0.0026
      4 C         -10.5452  -19.0398   19.7028 C.ar    1  UNL1       -0.0003
      5 C          -9.6558  -20.0326   19.0147 C.ar    1  UNL1       -0.0000
      6 C          -8.1960  -20.0932   19.3541 C.ar    1  UNL1       -0.0003
      7 C          -7.6255  -19.1611   20.3815 C.ar    1  UNL1       -0.0024
      8 C          -6.1656  -19.2216   20.7209 C.ar    1  UNL1       -0.0003
      9 C          -5.1372  -19.0425   19.6438 C.ar    1  UNL1       -0.0000
     10 C          -3.6774  -19.1031   19.9832 C.ar    1  UNL1       -0.0000
     11 C          -3.2459  -19.3428   21.3997 C.ar    1  UNL1       -0.0000
     12 C          -4.2744  -19.5219   22.4768 C.ar    1  UNL1       -0.0000
     13 C          -5.7343  -19.4613   22.1374 C.ar    1  UNL1       -0.0000
     14 C          -8.3021  -15.9817   24.3440 C.2     1  UNL1        0.4051
     15 O          -7.4633  -14.8439   23.8424 O.2     1  UNL1       -0.2262
     16 N          -8.5426  -17.1779   23.4714 N.am    1  UNL1       -0.2421
     17 C          -9.3814  -18.3157   23.9730 C.3     1  UNL1        0.0959
     18 C          -9.0016  -19.7667   23.9533 C.3     1  UNL1        0.0384
     19 C         -10.1328  -20.5501   24.5506 C.3     1  UNL1        0.0704
     20 N         -11.2117  -19.5833   24.9394 N.3     1  UNL1       -0.2960
     21 C         -10.7473  -18.2023   24.5825 C.3     1  UNL1        0.0888
     22 H         -11.3838  -19.6419   25.9431 H       1  UNL1        0.1233
     23 O          -8.9003  -15.9235   25.7183 O.3     1  UNL1       -0.4345
     24 C          -6.9073  -15.4634   27.3202 C.3     1  UNL1        0.0513
     25 C          -8.0771  -16.3087   26.9116 C.3     1  UNL1        0.2102
@<TRIPOS>BOND
     1    24    25    1
     2    25    23    1
     3    23    14    1
     4    14    15    2
     5    14    16   am
     6    16     1    1
     7     1     2    1
     8     2     3   ar
     9     3     4   ar
    10     4     5   ar
    11     5     6   ar
    12     6     7   ar
    13     7     8    1
    14     8     9   ar
    15     9    10   ar
    16    10    11   ar
    17    11    12   ar
    18    12    13   ar
    19    17    16    1
    20    17    18    1
    21    18    19    1
    22    19    20    1
    23    20    21    1
    24     7     2   ar
    25    13     8   ar
    26    21    17    1
    27    20    22    1
@<TRIPOS>MOLECULE
*****
 25 27 0 0 0
SMALL
GASTEIGER

@<TRIPOS>ATOM
      1 C          -7.6455  -16.6363   22.4936 C.3     1  UNL1        0.1234
      2 C          -6.4832  -17.5844   22.5114 C.ar    1  UNL1       -0.0022
      3 C          -5.2371  -17.2294   23.2671 C.ar    1  UNL1       -0.0026
      4 C          -4.0750  -18.1775   23.2848 C.ar    1  UNL1       -0.0003
      5 C          -4.1589  -19.4807   22.5468 C.ar    1  UNL1       -0.0000
      6 C          -5.4050  -19.8357   21.7910 C.ar    1  UNL1       -0.0003
      7 C          -6.5671  -18.8876   21.7733 C.ar    1  UNL1       -0.0024
      8 C          -7.8133  -19.2426   21.0175 C.ar    1  UNL1       -0.0003
      9 C          -9.0817  -19.5411   21.7605 C.ar    1  UNL1       -0.0000
     10 C         -10.3278  -19.8961   21.0048 C.ar    1  UNL1       -0.0000
     11 C         -10.3055  -19.9526   19.5060 C.ar    1  UNL1       -0.0000
     12 C          -9.0371  -19.6541   18.7630 C.ar    1  UNL1       -0.0000
     13 C          -7.7910  -19.2991   19.5188 C.ar    1  UNL1       -0.0000
     14 C          -8.0344  -15.4196   24.7560 C.2     1  UNL1        0.4051
     15 O          -6.7867  -14.6160   24.5384 O.2     1  UNL1       -0.2262
     16 N          -8.4639  -16.4297   23.7336 N.am    1  UNL1       -0.2421
     17 C          -9.7116  -17.2333   23.9512 C.3     1  UNL1        0.0959
     18 C          -9.8609  -18.3927   24.8911 C.3     1  UNL1        0.0384
     19 C         -11.2707  -18.8945   24.7879 C.3     1  UNL1        0.0704
     20 N         -11.9927  -18.0452   23.7841 N.3     1  UNL1       -0.2960
     21 C         -11.0291  -17.0185   23.2670 C.3     1  UNL1        0.0888
     22 H         -12.7858  -17.5827   24.2286 H       1  UNL1        0.1233
     23 O          -8.8528  -15.2130   25.9960 O.3     1  UNL1       -0.4345
     24 C          -7.0283  -16.1261   27.6046 C.3     1  UNL1        0.0513
     25 C          -8.1894  -15.2136   27.3413 C.3     1  UNL1        0.2102
@<TRIPOS>BOND
     1    24    25    1
     2    25    23    1
     3    23    14    1
     4    14    15    2
     5    14    16   am
     6    16     1    1
     7     1     2    1
     8     2     3   ar
     9     3     4   ar
    10     4     5   ar
    11     5     6   ar
    12     6     7   ar
    13     7     8    1
    14     8     9   ar
    15     9    10   ar
    16    10    11   ar
    17    11    12   ar
    18    12    13   ar
    19    17    16    1
    20    17    18    1
    21    18    19    1
    22    19    20    1
    23    20    21    1
    24     7     2   ar
    25    13     8   ar
    26    21    17    1
    27    20    22    1
@<TRIPOS>MOLECULE
*****
 25 27 0 0 0
SMALL
GASTEIGER

@<TRIPOS>ATOM
      1 C          -8.2088  -19.0796   22.4606 C.3     1  UNL1        0.1234
      2 C          -7.7778  -17.7722   23.0567 C.ar    1  UNL1       -0.0022
      3 C          -6.3210  -17.4205   23.1194 C.ar    1  UNL1       -0.0026
      4 C          -5.8900  -16.1133   23.7154 C.ar    1  UNL1       -0.0003
      5 C          -6.9159  -15.1577   24.2486 C.ar    1  UNL1       -0.0000
      6 C          -8.3727  -15.5093   24.1859 C.ar    1  UNL1       -0.0003
      7 C          -8.8037  -16.8166   23.5899 C.ar    1  UNL1       -0.0024
      8 C         -10.2605  -17.1684   23.5272 C.ar    1  UNL1       -0.0003
      9 C         -10.8053  -18.2650   24.3937 C.ar    1  UNL1       -0.0000
     10 C         -12.2621  -18.6167   24.3310 C.ar    1  UNL1       -0.0000
     11 C         -13.1742  -17.8719   23.4018 C.ar    1  UNL1       -0.0000
     12 C         -12.6295  -16.7753   22.5353 C.ar    1  UNL1       -0.0000
     13 C         -11.1726  -16.4235   22.5981 C.ar    1  UNL1       -0.0000
     14 C          -9.0540  -19.3907   20.0236 C.2     1  UNL1        0.4051
     15 O         -10.4573  -19.1135   20.4749 O.2     1  UNL1       -0.2262
     16 N          -7.9296  -19.3737   21.0165 N.am    1  UNL1       -0.2421
     17 C          -6.5263  -19.6510   20.5652 C.3     1  UNL1        0.0959
     18 C          -5.8190  -20.9713   20.6452 C.3     1  UNL1        0.0384
     19 C          -4.4394  -20.7929   20.0841 C.3     1  UNL1        0.0704
     20 N          -4.2941  -19.3622   19.6574 N.3     1  UNL1       -0.2960
     21 C          -5.5838  -18.6565   19.9547 C.3     1  UNL1        0.0888
     22 H          -4.0976  -19.3175   18.6575 H       1  UNL1        0.1233
     23 O          -8.7748  -19.6849   18.5795 O.3     1  UNL1       -0.4345
     24 C          -9.2796  -21.3638   16.6622 C.3     1  UNL1        0.0513
     25 C          -8.8484  -21.0950   18.0735 C.3     1  UNL1        0.2102
@<TRIPOS>BOND
     1    24    25    1
     2    25    23    1
     3    23    14    1
     4    14    15    2
     5    14    16   am
     6    16     1    1
     7     1     2    1
     8     2     3   ar
     9     3     4   ar
    10     4     5   ar
    11     5     6   ar
    12     6     7   ar
    13     7     8    1
    14     8     9   ar
    15     9    10   ar
    16    10    11   ar
    17    11    12   ar
    18    12    13   ar
    19    17    16    1
    20    17    18    1
    21    18    19    1
    22    19    20    1
    23    20    21    1
    24     7     2   ar
    25    13     8   ar
    26    21    17    1
    27    20    22    1
@<TRIPOS>MOLECULE
*****
 25 27 0 0 0
SMALL
GASTEIGER

@<TRIPOS>ATOM
      1 C          -7.8332  -17.9707   22.2531 C.3     1  UNL1        0.1234
      2 C          -7.2254  -17.0320   23.2529 C.ar    1  UNL1       -0.0022
      3 C          -8.1013  -16.0957   24.0314 C.ar    1  UNL1       -0.0026
      4 C          -7.4935  -15.1570   25.0312 C.ar    1  UNL1       -0.0003
      5 C          -6.0099  -15.1547   25.2524 C.ar    1  UNL1       -0.0000
      6 C          -5.1341  -16.0910   24.4738 C.ar    1  UNL1       -0.0003
      7 C          -5.7418  -17.0296   23.4741 C.ar    1  UNL1       -0.0024
      8 C          -4.8660  -17.9660   22.6955 C.ar    1  UNL1       -0.0003
      9 C          -3.3773  -17.7821   22.7041 C.ar    1  UNL1       -0.0000
     10 C          -2.5015  -18.7184   21.9255 C.ar    1  UNL1       -0.0000
     11 C          -3.1143  -19.8387   21.1383 C.ar    1  UNL1       -0.0000
     12 C          -4.6029  -20.0226   21.1297 C.ar    1  UNL1       -0.0000
     13 C          -5.4788  -19.0862   21.9083 C.ar    1  UNL1       -0.0000
     14 C          -9.8807  -19.1773   23.3027 C.2     1  UNL1        0.4051
     15 O          -8.9783  -19.8412   24.3000 O.2     1  UNL1       -0.2262
     16 N          -9.3082  -18.2420   22.2792 N.am    1  UNL1       -0.2421
     17 C         -10.2107  -17.5781   21.2819 C.3     1  UNL1        0.0959
     18 C         -10.5770  -16.1237   21.2555 C.3     1  UNL1        0.0384
     19 C         -11.4980  -15.8987   20.0931 C.3     1  UNL1        0.0704
     20 N         -11.7009  -17.2140   19.4011 N.3     1  UNL1       -0.2960
     21 C         -10.9053  -18.2519   20.1359 C.3     1  UNL1        0.0888
     22 H         -11.3788  -17.1504   18.4354 H       1  UNL1        0.1233
     23 O         -11.3558  -19.4486   23.3288 O.3     1  UNL1       -0.4345
     24 C         -13.3404  -17.7725   23.3741 C.3     1  UNL1        0.0513
     25 C         -12.2719  -18.5405   24.0943 C.3     1  UNL1        0.2102
@<TRIPOS>BOND
     1    24    25    1
     2    25    23    1
     3    23    14    1
     4    14    15    2
     5    14    16   am
     6    16     1    1
     7     1     2    1
     8     2     3   ar
     9     3     4   ar
    10     4     5   ar
    11     5     6   ar
    12     6     7   ar
    13     7     8    1
    14     8     9   ar
    15     9    10   ar
    16    10    11   ar
    17    11    12   ar
    18    12    13   ar
    19    17    16    1
    20    17    18    1
    21    18    19    1
    22    19    20    1
    23    20    21    1
    24     7     2   ar
    25    13     8   ar
    26    21    17    1
    27    20    22    1
@<TRIPOS>MOLECULE
*****
 25 27 0 0 0
SMALL
GASTEIGER

@<TRIPOS>ATOM
      1 C          -7.5283  -16.0119   22.8208 C.3     1  UNL1        0.1234
      2 C          -7.3010  -15.8047   24.2890 C.ar    1  UNL1       -0.0022
      3 C          -8.4500  -15.4408   25.1818 C.ar    1  UNL1       -0.0026
      4 C          -8.2227  -15.2335   26.6499 C.ar    1  UNL1       -0.0003
      5 C          -6.8463  -15.3902   27.2251 C.ar    1  UNL1       -0.0000
      6 C          -5.6972  -15.7541   26.3323 C.ar    1  UNL1       -0.0003
      7 C          -5.9245  -15.9614   24.8643 C.ar    1  UNL1       -0.0024
      8 C          -4.7754  -16.3253   23.9714 C.ar    1  UNL1       -0.0003
      9 C          -4.1748  -15.2932   23.0637 C.ar    1  UNL1       -0.0000
     10 C          -3.0258  -15.6570   22.1708 C.ar    1  UNL1       -0.0000
     11 C          -2.4773  -17.0531   22.1856 C.ar    1  UNL1       -0.0000
     12 C          -3.0779  -18.0853   23.0933 C.ar    1  UNL1       -0.0000
     13 C          -4.2270  -17.7213   23.9862 C.ar    1  UNL1       -0.0000
     14 C          -7.8296  -18.3321   21.6911 C.2     1  UNL1        0.4051
     15 O          -6.3448  -18.4340   21.5043 O.2     1  UNL1       -0.2262
     16 N          -8.4213  -17.1211   22.3494 N.am    1  UNL1       -0.2421
     17 C          -9.9061  -17.0192   22.5362 C.3     1  UNL1        0.0959
     18 C         -10.8310  -16.1176   21.7733 C.3     1  UNL1        0.0384
     19 C         -12.2233  -16.3422   22.2843 C.3     1  UNL1        0.0704
     20 N         -12.1589  -17.3826   23.3630 N.3     1  UNL1       -0.2960
     21 C         -10.7268  -17.8009   23.5187 C.3     1  UNL1        0.0888
     22 H         -12.7282  -18.1876   23.1020 H       1  UNL1        0.1233
     23 O          -8.7227  -19.4412   21.2197 O.3     1  UNL1       -0.4345
     24 C          -8.3398  -19.7376   18.6671 C.3     1  UNL1        0.0513
     25 C          -9.2534  -19.4319   19.8168 C.3     1  UNL1        0.2102
@<TRIPOS>BOND
     1    24    25    1
     2    25    23    1
     3    23    14    1
     4    14    15    2
     5    14    16   am
     6    16     1    1
     7     1     2    1
     8     2     3   ar
     9     3     4   ar
    10     4     5   ar
    11     5     6   ar
    12     6     7   ar
    13     7     8    1
    14     8     9   ar
    15     9    10   ar
    16    10    11   ar
    17    11    12   ar
    18    12    13   ar
    19    17    16    1
    20    17    18    1
    21    18    19    1
    22    19    20    1
    23    20    21    1
    24     7     2   ar
    25    13     8   ar
    26    21    17    1
    27    20    22    1
@<TRIPOS>MOLECULE
*****
 25 27 0 0 0
SMALL
GASTEIGER

@<TRIPOS>ATOM
      1 C          -7.5700  -17.2367   21.9571 C.3     1  UNL1        0.1234
      2 C          -6.5686  -16.9105   23.0252 C.ar    1  UNL1       -0.0022
      3 C          -6.8762  -15.8535   24.0441 C.ar    1  UNL1       -0.0026
      4 C          -5.8748  -15.5274   25.1122 C.ar    1  UNL1       -0.0003
      5 C          -4.5659  -16.2583   25.1614 C.ar    1  UNL1       -0.0000
      6 C          -4.2583  -17.3153   24.1425 C.ar    1  UNL1       -0.0003
      7 C          -5.2596  -17.6414   23.0745 C.ar    1  UNL1       -0.0024
      8 C          -4.9521  -18.6984   22.0555 C.ar    1  UNL1       -0.0003
      9 C          -3.6202  -18.7101   21.3657 C.ar    1  UNL1       -0.0000
     10 C          -3.3125  -19.7671   20.3468 C.ar    1  UNL1       -0.0000
     11 C          -4.3369  -20.8124   20.0177 C.ar    1  UNL1       -0.0000
     12 C          -5.6688  -20.8007   20.7076 C.ar    1  UNL1       -0.0000
     13 C          -5.9763  -19.7436   21.7265 C.ar    1  UNL1       -0.0000
     14 C          -9.8882  -16.0901   21.7085 C.2     1  UNL1        0.4051
     15 O          -9.2719  -15.0319   20.8424 O.2     1  UNL1       -0.2262
     16 N          -9.0372  -17.1926   22.2659 N.am    1  UNL1       -0.2421
     17 C          -9.6535  -18.2509   23.1320 C.3     1  UNL1        0.0959
     18 C          -9.9942  -18.1120   24.5862 C.3     1  UNL1        0.0384
     19 C         -10.5885  -19.4091   25.0490 C.3     1  UNL1        0.0704
     20 N         -10.6151  -20.3497   23.8807 N.3     1  UNL1       -0.2960
     21 C         -10.0372  -19.6338   22.6960 C.3     1  UNL1        0.0888
     22 H         -11.5761  -20.6279   23.6821 H       1  UNL1        0.1233
     23 O         -11.3554  -16.0461   22.0173 O.3     1  UNL1       -0.4345
     24 C         -13.1159  -17.9296   21.6969 C.3     1  UNL1        0.0513
     25 C         -12.3283  -16.7797   21.1426 C.3     1  UNL1        0.2102
@<TRIPOS>BOND
     1    24    25    1
     2    25    23    1
     3    23    14    1
     4    14    15    2
     5    14    16   am
     6    16     1    1
     7     1     2    1
     8     2     3   ar
     9     3     4   ar
    10     4     5   ar
    11     5     6   ar
    12     6     7   ar
    13     7     8    1
    14     8     9   ar
    15     9    10   ar
    16    10    11   ar
    17    11    12   ar
    18    12    13   ar
    19    17    16    1
    20    17    18    1
    21    18    19    1
    22    19    20    1
    23    20    21    1
    24     7     2   ar
    25    13     8   ar
    26    21    17    1
    27    20    22    1
@<TRIPOS>MOLECULE
*****
 25 27 0 0 0
SMALL
GASTEIGER

@<TRIPOS>ATOM
      1 C         -13.8061   -6.1058   16.7768 C.3     1  UNL1        0.1234
      2 C         -14.5652   -7.0817   17.6263 C.ar    1  UNL1       -0.0022
      3 C         -14.7088   -8.5078   17.1840 C.ar    1  UNL1       -0.0026
      4 C         -15.4678   -9.4836   18.0335 C.ar    1  UNL1       -0.0003
      5 C         -16.0833   -9.0333   19.3252 C.ar    1  UNL1       -0.0000
      6 C         -15.9396   -7.6073   19.7674 C.ar    1  UNL1       -0.0003
      7 C         -15.1806   -6.6314   18.9180 C.ar    1  UNL1       -0.0024
      8 C         -15.0370   -5.2053   19.3603 C.ar    1  UNL1       -0.0003
      9 C         -13.9519   -4.8244   20.3233 C.ar    1  UNL1       -0.0000
     10 C         -13.8082   -3.3983   20.7656 C.ar    1  UNL1       -0.0000
     11 C         -14.7497   -2.3530   20.2448 C.ar    1  UNL1       -0.0000
     12 C         -15.8347   -2.7339   19.2817 C.ar    1  UNL1       -0.0000
     13 C         -15.9784   -4.1601   18.8394 C.ar    1  UNL1       -0.0000
     14 C         -12.2084   -4.1127   17.2514 C.2     1  UNL1        0.4051
     15 O         -13.2730   -3.1537   16.8077 O.2     1  UNL1       -0.2262
     16 N         -12.4750   -5.5888   17.2359 N.am    1  UNL1       -0.2421
     17 C         -11.4104   -6.5478   17.6795 C.3     1  UNL1        0.0959
     18 C         -10.5316   -6.3936   18.8854 C.3     1  UNL1        0.0384
     19 C          -9.6157   -7.5800   18.9463 C.3     1  UNL1        0.0704
     20 N          -9.9284   -8.4674   17.7780 N.3     1  UNL1       -0.2960
     21 C         -11.0375   -7.8295   16.9952 C.3     1  UNL1        0.0888
     22 H         -10.2229   -9.3858   18.1100 H       1  UNL1        0.1233
     23 O         -10.8773   -3.5957   17.7104 O.3     1  UNL1       -0.4345
     24 C          -8.7924   -3.9895   16.2110 C.3     1  UNL1        0.0513
     25 C          -9.8836   -3.0882   16.7080 C.3     1  UNL1        0.2102
@<TRIPOS>BOND
     1    24    25    1
     2    25    23    1
     3    23    14    1
     4    14    15    2
     5    14    16   am
     6    16     1    1
     7     1     2    1
     8     2     3   ar
     9     3     4   ar
    10     4     5   ar
    11     5     6   ar
    12     6     7   ar
    13     7     8    1
    14     8     9   ar
    15     9    10   ar
    16    10    11   ar
    17    11    12   ar
    18    12    13   ar
    19    17    16    1
    20    17    18    1
    21    18    19    1
    22    19    20    1
    23    20    21    1
    24     7     2   ar
    25    13     8   ar
    26    21    17    1
    27    20    22    1
