@<TRIPOS>MOLECULE
*****
 22 23 0 0 0
SMALL
GASTEIGER

@<TRIPOS>ATOM
      1 C          -7.8641  -16.7479   23.0866 C.2     1  UNL1        0.2406
      2 O          -7.9121  -15.8414   21.8925 O.2     1  UNL1       -0.2733
      3 N          -8.2407  -18.1931   22.9468 N.am    1  UNL1       -0.2833
      4 H          -8.2092  -18.7880   23.7306 H       1  UNL1        0.1549
      5 C          -8.6654  -18.7318   21.6129 C.ar    1  UNL1        0.0423
      6 C          -7.6349  -19.2228   20.6398 C.ar    1  UNL1       -0.0087
      7 C          -6.1798  -19.1751   21.0005 C.3     1  UNL1        0.0323
      8 C          -8.0597  -19.7616   19.3058 C.ar    1  UNL1       -0.0031
      9 C          -9.5149  -19.8092   18.9450 C.ar    1  UNL1       -0.0006
     10 C         -10.5453  -19.3182   19.9182 C.ar    1  UNL1       -0.0031
     11 C         -10.1206  -18.7795   21.2521 C.ar    1  UNL1       -0.0087
     12 C         -11.1511  -18.2885   22.2252 C.3     1  UNL1        0.0323
     13 N          -5.9933  -15.9082   24.6821 N.3     1  UNL1       -0.2666
     14 C          -5.5687  -15.3696   26.0160 C.3     1  UNL1        0.0725
     15 C          -6.5901  -15.1319   27.0886 C.3     1  UNL1        0.0174
     16 C          -8.0361  -15.4329   26.8271 C.3     1  UNL1        0.0033
     17 C          -8.4607  -15.9715   25.4932 C.3     1  UNL1        0.0254
     18 C          -7.4394  -16.2092   24.4207 C.3     1  UNL1        0.1351
     19 C          -4.9720  -16.1459   23.6096 C.3     1  UNL1        0.0725
     20 C          -4.1635  -17.4094   23.6106 C.3     1  UNL1        0.0173
     21 C          -2.3820  -16.3314   22.0567 C.3     1  UNL1        0.0000
     22 C          -2.9896  -17.5493   22.6873 C.3     1  UNL1        0.0014
@<TRIPOS>BOND
     1    21    22    1
     2    22    20    1
     3    20    19    1
     4    19    13    1
     5    13    14    1
     6    14    15    1
     7    15    16    1
     8    16    17    1
     9    17    18    1
    10    18     1    1
    11     1     2    2
    12     1     3   am
    13     3     5    1
    14     5     6   ar
    15     6     7    1
    16     6     8   ar
    17     8     9   ar
    18     9    10   ar
    19    10    11   ar
    20    11    12    1
    21    18    13    1
    22    11     5   ar
    23     3     4    1
@<TRIPOS>MOLECULE
*****
 22 23 0 0 0
SMALL
GASTEIGER

@<TRIPOS>ATOM
      1 C          -7.9117  -16.7392   23.1214 C.2     1  UNL1        0.2406
      2 O          -7.9450  -15.8341   21.9257 O.2     1  UNL1       -0.2733
      3 N          -8.3057  -18.1798   22.9827 N.am    1  UNL1       -0.2833
      4 H          -8.2838  -18.7739   23.7675 H       1  UNL1        0.1549
      5 C          -8.7329  -18.7155   21.6483 C.ar    1  UNL1        0.0423
      6 C         -10.1890  -18.7654   21.2915 C.ar    1  UNL1       -0.0087
      7 C         -11.2178  -18.2798   22.2689 C.3     1  UNL1        0.0323
      8 C         -10.6161  -19.3011   19.9570 C.ar    1  UNL1       -0.0031
      9 C          -9.5873  -19.7868   18.9796 C.ar    1  UNL1       -0.0006
     10 C          -8.1312  -19.7368   19.3364 C.ar    1  UNL1       -0.0031
     11 C          -7.7040  -19.2012   20.6708 C.ar    1  UNL1       -0.0087
     12 C          -6.2479  -19.1512   21.0277 C.3     1  UNL1        0.0323
     13 N          -6.0405  -15.8867   24.7094 N.3     1  UNL1       -0.2666
     14 C          -5.6133  -15.3512   26.0438 C.3     1  UNL1        0.0725
     15 C          -6.6302  -15.1324   27.1246 C.3     1  UNL1        0.0174
     16 C          -8.0742  -15.4492   26.8710 C.3     1  UNL1        0.0033
     17 C          -8.5014  -15.9847   25.5366 C.3     1  UNL1        0.0254
     18 C          -7.4845  -16.2035   24.4558 C.3     1  UNL1        0.1351
     19 C          -5.0236  -16.1055   23.6286 C.3     1  UNL1        0.0725
     20 C          -4.2056  -17.3627   23.6119 C.3     1  UNL1        0.0173
     21 C          -2.6529  -18.7482   22.0564 C.3     1  UNL1        0.0000
     22 C          -2.9902  -17.4551   22.7376 C.3     1  UNL1        0.0014
@<TRIPOS>BOND
     1    21    22    1
     2    22    20    1
     3    20    19    1
     4    19    13    1
     5    13    14    1
     6    14    15    1
     7    15    16    1
     8    16    17    1
     9    17    18    1
    10    18     1    1
    11     1     2    2
    12     1     3   am
    13     3     5    1
    14     5     6   ar
    15     6     7    1
    16     6     8   ar
    17     8     9   ar
    18     9    10   ar
    19    10    11   ar
    20    11    12    1
    21    18    13    1
    22    11     5   ar
    23     3     4    1
@<TRIPOS>MOLECULE
*****
 22 23 0 0 0
SMALL
GASTEIGER

@<TRIPOS>ATOM
      1 C          -7.3668  -18.5931   22.0551 C.2     1  UNL1        0.2406
      2 O          -7.2481  -17.6578   20.8885 O.2     1  UNL1       -0.2733
      3 N          -6.1849  -19.4111   22.4839 N.am    1  UNL1       -0.2833
      4 H          -6.2628  -20.0250   23.2496 H       1  UNL1        0.1549
      5 C          -4.8842  -19.2938   21.7461 C.ar    1  UNL1        0.0423
      6 C          -4.6365  -20.1292   20.5251 C.ar    1  UNL1       -0.0087
      7 C          -5.6895  -21.0819   20.0420 C.3     1  UNL1        0.0323
      8 C          -3.3357  -20.0119   19.7873 C.ar    1  UNL1       -0.0031
      9 C          -2.2827  -19.0591   20.2704 C.ar    1  UNL1       -0.0006
     10 C          -2.5304  -18.2237   21.4914 C.ar    1  UNL1       -0.0031
     11 C          -3.8311  -18.3411   22.2292 C.ar    1  UNL1       -0.0087
     12 C          -4.0788  -17.5056   23.4502 C.3     1  UNL1        0.0323
     13 N          -9.0669  -17.6553   23.7815 N.3     1  UNL1       -0.2666
     14 C         -10.3676  -17.7727   24.5193 C.3     1  UNL1        0.0725
     15 C         -11.2689  -18.9453   24.2687 C.3     1  UNL1        0.0174
     16 C         -10.8695  -20.0004   23.2802 C.3     1  UNL1        0.0033
     17 C          -9.5688  -19.8830   22.5424 C.3     1  UNL1        0.0254
     18 C          -8.6675  -18.7105   22.7930 C.3     1  UNL1        0.1351
     19 C          -8.1656  -16.4828   24.0321 C.3     1  UNL1        0.0725
     20 C          -8.5430  -15.4517   25.0540 C.3     1  UNL1        0.0173
     21 C          -8.3234  -16.4258   27.4526 C.3     1  UNL1        0.0000
     22 C          -7.8813  -15.4526   26.4002 C.3     1  UNL1        0.0014
@<TRIPOS>BOND
     1    21    22    1
     2    22    20    1
     3    20    19    1
     4    19    13    1
     5    13    14    1
     6    14    15    1
     7    15    16    1
     8    16    17    1
     9    17    18    1
    10    18     1    1
    11     1     2    2
    12     1     3   am
    13     3     5    1
    14     5     6   ar
    15     6     7    1
    16     6     8   ar
    17     8     9   ar
    18     9    10   ar
    19    10    11   ar
    20    11    12    1
    21    18    13    1
    22    11     5   ar
    23     3     4    1
@<TRIPOS>MOLECULE
*****
 22 23 0 0 0
SMALL
GASTEIGER

@<TRIPOS>ATOM
      1 C          -6.9560  -18.9869   21.7389 C.2     1  UNL1        0.2406
      2 O          -7.5732  -20.0669   22.5771 O.2     1  UNL1       -0.2733
      3 N          -7.8017  -17.8581   21.2284 N.am    1  UNL1       -0.2833
      4 H          -7.3965  -17.1492   20.6783 H       1  UNL1        0.1549
      5 C          -9.2646  -17.8093   21.5561 C.ar    1  UNL1        0.0423
      6 C          -9.7432  -17.0129   22.7337 C.ar    1  UNL1       -0.0087
      7 C          -8.7590  -16.2654   23.5836 C.3     1  UNL1        0.0323
      8 C         -11.2062  -16.9641   23.0614 C.ar    1  UNL1       -0.0031
      9 C         -12.1905  -17.7117   22.2115 C.ar    1  UNL1       -0.0006
     10 C         -11.7119  -18.5080   21.0339 C.ar    1  UNL1       -0.0031
     11 C         -10.2489  -18.5568   20.7062 C.ar    1  UNL1       -0.0087
     12 C          -9.7703  -19.3531   19.5286 C.3     1  UNL1        0.0323
     13 N          -4.5057  -18.3113   22.2775 N.3     1  UNL1       -0.2666
     14 C          -3.0428  -18.3601   21.9498 C.3     1  UNL1        0.0725
     15 C          -2.5672  -19.1333   20.7556 C.3     1  UNL1        0.0174
     16 C          -3.5544  -19.8576   19.8892 C.3     1  UNL1        0.0033
     17 C          -5.0173  -19.8088   20.2170 C.3     1  UNL1        0.0254
     18 C          -5.4930  -19.0357   21.4111 C.3     1  UNL1        0.1351
     19 C          -4.9814  -17.5382   23.4717 C.3     1  UNL1        0.0725
     20 C          -4.6488  -16.0815   23.6031 C.3     1  UNL1        0.0173
     21 C          -5.4037  -15.5896   26.0400 C.3     1  UNL1        0.0000
     22 C          -5.3954  -15.2272   24.5844 C.3     1  UNL1        0.0014
@<TRIPOS>BOND
     1    21    22    1
     2    22    20    1
     3    20    19    1
     4    19    13    1
     5    13    14    1
     6    14    15    1
     7    15    16    1
     8    16    17    1
     9    17    18    1
    10    18     1    1
    11     1     2    2
    12     1     3   am
    13     3     5    1
    14     5     6   ar
    15     6     7    1
    16     6     8   ar
    17     8     9   ar
    18     9    10   ar
    19    10    11   ar
    20    11    12    1
    21    18    13    1
    22    11     5   ar
    23     3     4    1
@<TRIPOS>MOLECULE
*****
 22 23 0 0 0
SMALL
GASTEIGER

@<TRIPOS>ATOM
      1 C          -6.9746  -18.9519   21.7234 C.2     1  UNL1        0.2406
      2 O          -7.5906  -20.0420   22.5493 O.2     1  UNL1       -0.2733
      3 N          -7.8205  -17.8154   21.2305 N.am    1  UNL1       -0.2833
      4 H          -7.4162  -17.0999   20.6884 H       1  UNL1        0.1549
      5 C          -9.2823  -17.7690   21.5635 C.ar    1  UNL1        0.0423
      6 C         -10.2695  -18.5101   20.7113 C.ar    1  UNL1       -0.0087
      7 C          -9.7950  -19.2975   19.5262 C.3     1  UNL1        0.0323
      8 C         -11.7314  -18.4637   21.0444 C.ar    1  UNL1       -0.0031
      9 C         -12.2059  -17.6762   22.2295 C.ar    1  UNL1       -0.0006
     10 C         -11.2187  -16.9351   23.0817 C.ar    1  UNL1       -0.0031
     11 C          -9.7569  -16.9815   22.7487 C.ar    1  UNL1       -0.0087
     12 C          -8.7697  -16.2405   23.6008 C.3     1  UNL1        0.0323
     13 N          -4.5218  -18.2870   22.2633 N.3     1  UNL1       -0.2666
     14 C          -3.0600  -18.3334   21.9302 C.3     1  UNL1        0.0725
     15 C          -2.5892  -19.0910   20.7242 C.3     1  UNL1        0.0174
     16 C          -3.5802  -19.8022   19.8513 C.3     1  UNL1        0.0033
     17 C          -5.0420  -19.7558   20.1843 C.3     1  UNL1        0.0254
     18 C          -5.5128  -18.9982   21.3903 C.3     1  UNL1        0.1351
     19 C          -4.9925  -17.5294   23.4692 C.3     1  UNL1        0.0725
     20 C          -4.6191  -16.0870   23.6418 C.3     1  UNL1        0.0173
     21 C          -5.3836  -15.5270   26.0609 C.3     1  UNL1        0.0000
     22 C          -5.3911  -15.2208   24.5924 C.3     1  UNL1        0.0014
@<TRIPOS>BOND
     1    21    22    1
     2    22    20    1
     3    20    19    1
     4    19    13    1
     5    13    14    1
     6    14    15    1
     7    15    16    1
     8    16    17    1
     9    17    18    1
    10    18     1    1
    11     1     2    2
    12     1     3   am
    13     3     5    1
    14     5     6   ar
    15     6     7    1
    16     6     8   ar
    17     8     9   ar
    18     9    10   ar
    19    10    11   ar
    20    11    12    1
    21    18    13    1
    22    11     5   ar
    23     3     4    1
@<TRIPOS>MOLECULE
*****
 22 23 0 0 0
SMALL
GASTEIGER

@<TRIPOS>ATOM
      1 C          -7.3476  -18.6473   22.0412 C.2     1  UNL1        0.2406
      2 O          -7.3214  -17.8777   20.7540 O.2     1  UNL1       -0.2733
      3 N          -6.1071  -19.3349   22.5294 N.am    1  UNL1       -0.2833
      4 H          -6.1244  -19.8400   23.3743 H       1  UNL1        0.1549
      5 C          -4.8403  -19.2529   21.7304 C.ar    1  UNL1        0.0423
      6 C          -3.7598  -18.2940   22.1340 C.ar    1  UNL1       -0.0087
      7 C          -3.9459  -17.4171   23.3366 C.3     1  UNL1        0.0323
      8 C          -2.4929  -18.2120   21.3349 C.ar    1  UNL1       -0.0031
      9 C          -2.3067  -19.0889   20.1322 C.ar    1  UNL1       -0.0006
     10 C          -3.3873  -20.0478   19.7286 C.ar    1  UNL1       -0.0031
     11 C          -4.6541  -20.1298   20.5277 C.ar    1  UNL1       -0.0087
     12 C          -5.7347  -21.0887   20.1241 C.3     1  UNL1        0.0323
     13 N          -9.3293  -17.4739   23.2439 N.3     1  UNL1       -0.2666
     14 C         -10.5960  -17.5560   24.0430 C.3     1  UNL1        0.0725
     15 C         -11.1480  -18.8935   24.4385 C.3     1  UNL1        0.0174
     16 C         -10.4332  -20.1489   24.0349 C.3     1  UNL1        0.0033
     17 C          -9.1664  -20.0668   23.2358 C.3     1  UNL1        0.0254
     18 C          -8.6145  -18.7293   22.8403 C.3     1  UNL1        0.1351
     19 C          -8.7773  -16.1364   22.8484 C.3     1  UNL1        0.0725
     20 C          -7.8920  -15.3808   23.7946 C.3     1  UNL1        0.0173
     21 C          -8.3338  -15.4984   26.3522 C.3     1  UNL1        0.0000
     22 C          -7.5724  -15.9550   25.1430 C.3     1  UNL1        0.0014
@<TRIPOS>BOND
     1    21    22    1
     2    22    20    1
     3    20    19    1
     4    19    13    1
     5    13    14    1
     6    14    15    1
     7    15    16    1
     8    16    17    1
     9    17    18    1
    10    18     1    1
    11     1     2    2
    12     1     3   am
    13     3     5    1
    14     5     6   ar
    15     6     7    1
    16     6     8   ar
    17     8     9   ar
    18     9    10   ar
    19    10    11   ar
    20    11    12    1
    21    18    13    1
    22    11     5   ar
    23     3     4    1
@<TRIPOS>MOLECULE
*****
 22 23 0 0 0
SMALL
GASTEIGER

@<TRIPOS>ATOM
      1 C          -8.2271  -18.7676   22.1410 C.2     1  UNL1        0.2406
      2 O          -7.9739  -20.0740   22.8332 O.2     1  UNL1       -0.2733
      3 N          -7.0806  -17.9862   21.5710 N.am    1  UNL1       -0.2833
      4 H          -7.2468  -17.1288   21.1167 H       1  UNL1        0.1549
      5 C          -5.6808  -18.5112   21.6933 C.ar    1  UNL1        0.0423
      6 C          -4.7451  -17.9230   22.7075 C.ar    1  UNL1       -0.0087
      7 C          -5.2092  -16.8099   23.5994 C.3     1  UNL1        0.0323
      8 C          -3.3453  -18.4480   22.8297 C.ar    1  UNL1       -0.0031
      9 C          -2.8812  -19.5611   21.9377 C.ar    1  UNL1       -0.0006
     10 C          -3.8169  -20.1492   20.9235 C.ar    1  UNL1       -0.0031
     11 C          -5.2167  -19.6243   20.8013 C.ar    1  UNL1       -0.0087
     12 C          -6.1524  -20.2124   19.7871 C.3     1  UNL1        0.0323
     13 N         -10.2616  -17.5232   23.1718 N.3     1  UNL1       -0.2666
     14 C         -11.6613  -16.9983   23.0495 C.3     1  UNL1        0.0725
     15 C         -12.4265  -17.1927   21.7741 C.3     1  UNL1        0.0174
     16 C         -11.7919  -17.9121   20.6210 C.3     1  UNL1        0.0033
     17 C         -10.3922  -18.4371   20.7433 C.3     1  UNL1        0.0254
     18 C          -9.6270  -18.2426   22.0187 C.3     1  UNL1        0.1351
     19 C          -9.4964  -17.3288   24.4472 C.3     1  UNL1        0.0725
     20 C          -8.9722  -15.9704   24.8077 C.3     1  UNL1        0.0173
     21 C          -8.3116  -15.3390   27.2398 C.3     1  UNL1        0.0000
     22 C          -7.9276  -15.8285   25.8749 C.3     1  UNL1        0.0014
@<TRIPOS>BOND
     1    21    22    1
     2    22    20    1
     3    20    19    1
     4    19    13    1
     5    13    14    1
     6    14    15    1
     7    15    16    1
     8    16    17    1
     9    17    18    1
    10    18     1    1
    11     1     2    2
    12     1     3   am
    13     3     5    1
    14     5     6   ar
    15     6     7    1
    16     6     8   ar
    17     8     9   ar
    18     9    10   ar
    19    10    11   ar
    20    11    12    1
    21    18    13    1
    22    11     5   ar
    23     3     4    1
@<TRIPOS>MOLECULE
*****
 22 23 0 0 0
SMALL
GASTEIGER

@<TRIPOS>ATOM
      1 C          -7.1846  -19.4528   21.7326 C.2     1  UNL1        0.2406
      2 O          -6.7072  -20.6540   22.4935 O.2     1  UNL1       -0.2733
      3 N          -6.2105  -18.3875   21.3247 N.am    1  UNL1       -0.2833
      4 H          -6.5238  -17.5991   20.8253 H       1  UNL1        0.1549
      5 C          -4.7590  -18.5234   21.6778 C.ar    1  UNL1        0.0423
      6 C          -3.8799  -19.4514   20.8929 C.ar    1  UNL1       -0.0087
      7 C          -4.4522  -20.2434   19.7549 C.3     1  UNL1        0.0323
      8 C          -2.4284  -19.5873   21.2461 C.ar    1  UNL1       -0.0031
      9 C          -1.8560  -18.7953   22.3841 C.ar    1  UNL1       -0.0006
     10 C          -2.7351  -17.8674   23.1690 C.ar    1  UNL1       -0.0031
     11 C          -4.1866  -17.7314   22.8159 C.ar    1  UNL1       -0.0087
     12 C          -5.0657  -16.8035   23.6008 C.3     1  UNL1        0.0323
     13 N          -9.6544  -19.1059   22.4604 N.3     1  UNL1       -0.2666
     14 C         -11.1058  -18.9699   22.1072 C.3     1  UNL1        0.0725
     15 C         -11.5390  -19.0448   20.6730 C.3     1  UNL1        0.0174
     16 C         -10.5207  -19.2557   19.5921 C.3     1  UNL1        0.0033
     17 C          -9.0692  -19.3917   19.9453 C.3     1  UNL1        0.0254
     18 C          -8.6361  -19.3168   21.3794 C.3     1  UNL1        0.1351
     19 C          -9.2212  -19.0309   23.8945 C.3     1  UNL1        0.0725
     20 C          -9.4981  -17.7949   24.6980 C.3     1  UNL1        0.0173
     21 C          -8.6424  -15.3987   25.2233 C.3     1  UNL1        0.0000
     22 C          -8.9901  -16.4646   24.2267 C.3     1  UNL1        0.0014
@<TRIPOS>BOND
     1    21    22    1
     2    22    20    1
     3    20    19    1
     4    19    13    1
     5    13    14    1
     6    14    15    1
     7    15    16    1
     8    16    17    1
     9    17    18    1
    10    18     1    1
    11     1     2    2
    12     1     3   am
    13     3     5    1
    14     5     6   ar
    15     6     7    1
    16     6     8   ar
    17     8     9   ar
    18     9    10   ar
    19    10    11   ar
    20    11    12    1
    21    18    13    1
    22    11     5   ar
    23     3     4    1
@<TRIPOS>MOLECULE
*****
 22 23 0 0 0
SMALL
GASTEIGER

@<TRIPOS>ATOM
      1 C          -8.0301  -19.0881   22.3687 C.2     1  UNL1        0.2406
      2 O          -7.6276  -20.4284   22.9086 O.2     1  UNL1       -0.2733
      3 N          -6.9842  -18.1356   21.8698 N.am    1  UNL1       -0.2833
      4 H          -7.2485  -17.2559   21.5155 H       1  UNL1        0.1549
      5 C          -5.5359  -18.5234   21.9108 C.ar    1  UNL1        0.0423
      6 C          -4.6023  -17.8370   22.8634 C.ar    1  UNL1       -0.0087
      7 C          -5.1172  -16.7629   23.7750 C.3     1  UNL1        0.0323
      8 C          -3.1539  -18.2249   22.9043 C.ar    1  UNL1       -0.0031
      9 C          -2.6390  -19.2991   21.9927 C.ar    1  UNL1       -0.0006
     10 C          -3.5725  -19.9854   21.0402 C.ar    1  UNL1       -0.0031
     11 C          -5.0209  -19.5976   20.9992 C.ar    1  UNL1       -0.0087
     12 C          -5.9545  -20.2840   20.0466 C.3     1  UNL1        0.0323
     13 N         -10.2048  -18.6504   21.0163 N.3     1  UNL1       -0.2666
     14 C         -11.6532  -18.2626   20.9753 C.3     1  UNL1        0.0725
     15 C         -12.3753  -17.9245   22.2458 C.3     1  UNL1        0.0174
     16 C         -11.6491  -17.9743   23.5573 C.3     1  UNL1        0.0033
     17 C         -10.2007  -18.3622   23.5983 C.3     1  UNL1        0.0254
     18 C          -9.4786  -18.7002   22.3277 C.3     1  UNL1        0.1351
     19 C          -9.4827  -18.9885   19.7457 C.3     1  UNL1        0.0725
     20 C          -9.9149  -20.1700   18.9290 C.3     1  UNL1        0.0173
     21 C          -9.3009  -21.4292   16.7409 C.3     1  UNL1        0.0000
     22 C          -8.9132  -20.9117   18.0945 C.3     1  UNL1        0.0014
@<TRIPOS>BOND
     1    21    22    1
     2    22    20    1
     3    20    19    1
     4    19    13    1
     5    13    14    1
     6    14    15    1
     7    15    16    1
     8    16    17    1
     9    17    18    1
    10    18     1    1
    11     1     2    2
    12     1     3   am
    13     3     5    1
    14     5     6   ar
    15     6     7    1
    16     6     8   ar
    17     8     9   ar
    18     9    10   ar
    19    10    11   ar
    20    11    12    1
    21    18    13    1
    22    11     5   ar
    23     3     4    1
