@<TRIPOS>MOLECULE
*****
 26 28 0 0 0
SMALL
GASTEIGER

@<TRIPOS>ATOM
      1 C           8.2356   -4.2203   25.1166 C.2     1  UNL1        0.2491
      2 O           9.4237   -3.3066   25.1760 O.2     1  UNL1       -0.2699
      3 N           8.2717   -5.5443   25.8205 N.am    1  UNL1       -0.2754
      4 C           7.0836   -6.4580   25.7611 C.3     1  UNL1        0.0981
      5 C           7.1198   -7.7821   26.4651 C.3     1  UNL1        0.0442
      6 C           8.3440   -8.1925   27.2284 C.2     1  UNL1       -0.0326
      7 C           8.3802   -9.5165   27.9323 C.2     1  UNL1        0.0412
      8 C           9.5322   -7.2788   27.2879 C.3     1  UNL1        0.0442
      9 C           9.4960   -5.9547   26.5839 C.3     1  UNL1        0.0981
     10 C           5.5878   -3.8738   22.1808 C.ar    1  UNL1        0.1389
     11 C           4.5628   -2.9891   22.8264 C.ar    1  UNL1        0.0369
     12 C           4.7621   -2.5148   24.2354 C.ar    1  UNL1        0.0033
     13 C           5.9864   -2.9252   24.9988 C.ar    1  UNL1        0.0047
     14 C           7.0113   -3.8099   24.3532 C.ar    1  UNL1        0.0566
     15 C           6.8120   -4.2842   22.9442 C.ar    1  UNL1        0.0414
     16 C           4.1536   -3.9559   20.0160 C.3     1  UNL1        0.2525
     17 O           5.3885   -4.3481   20.7718 O.3     1  UNL1       -0.4714
     18 C           7.1921  -10.4302   27.8729 C.1     1  UNL1       -0.0583
     19 C           6.0040  -11.3439   27.8135 C.1     1  UNL1       -0.0405
     20 C           4.8158  -12.2576   27.7540 C.ar    1  UNL1        0.1224
     21 C           4.6466  -13.1934   26.5940 C.ar    1  UNL1        0.0276
     22 C           3.4585  -14.1071   26.5346 C.ar    1  UNL1        0.0034
     23 C           2.4396  -14.0850   27.6352 C.ar    1  UNL1        0.0148
     24 C           2.6088  -13.1492   28.7952 C.ar    1  UNL1        0.0600
     25 C           1.5898  -13.1271   29.8958 C.3     1  UNL1        0.0521
     26 N           3.7969  -12.2355   28.8547 N.ar    1  UNL1       -0.2414
@<TRIPOS>BOND
     1    16    17    1
     2    17    10    1
     3    10    11   ar
     4    11    12   ar
     5    12    13   ar
     6    13    14   ar
     7    14     1    1
     8     1     2    2
     9     1     3   am
    10     3     4    1
    11     4     5    1
    12     5     6    1
    13     6     7    2
    14     7    18    1
    15    18    19    3
    16    19    20    1
    17    20    21   ar
    18    21    22   ar
    19    22    23   ar
    20    23    24   ar
    21    24    25    1
    22    24    26   ar
    23     6     8    1
    24     8     9    1
    25    14    15   ar
    26    15    10   ar
    27     9     3    1
    28    26    20   ar
@<TRIPOS>MOLECULE
*****
 26 28 0 0 0
SMALL
GASTEIGER

@<TRIPOS>ATOM
      1 C          -0.9091    2.6854   26.3786 C.2     1  UNL1        0.2491
      2 O          -1.8961    3.7252   26.8198 O.2     1  UNL1       -0.2699
      3 N          -0.6034    2.5123   24.9204 N.am    1  UNL1       -0.2754
      4 C           0.3836    1.4726   24.4792 C.3     1  UNL1        0.0981
      5 C           0.6893    1.2995   23.0209 C.3     1  UNL1        0.0442
      6 C           0.0080    2.1662   22.0038 C.2     1  UNL1       -0.0326
      7 C           0.3137    1.9932   20.5456 C.2     1  UNL1        0.0412
      8 C          -0.9790    3.2060   22.4450 C.3     1  UNL1        0.0442
      9 C          -1.2847    3.3791   23.9032 C.3     1  UNL1        0.0981
     10 C           1.8186    1.3175   28.9161 C.ar    1  UNL1        0.1389
     11 C           1.1349    0.0853   29.4301 C.ar    1  UNL1        0.0369
     12 C          -0.2301   -0.2802   28.9270 C.ar    1  UNL1        0.0033
     13 C          -0.9114    0.5865   27.9099 C.ar    1  UNL1        0.0047
     14 C          -0.2278    1.8186   27.3958 C.ar    1  UNL1        0.0566
     15 C           1.1373    2.1842   27.8989 C.ar    1  UNL1        0.0414
     16 C           3.6981    1.0842   30.6946 C.3     1  UNL1        0.2525
     17 O           3.1836    1.6830   29.4192 O.3     1  UNL1       -0.4714
     18 C           1.3008    0.9534   20.1044 C.1     1  UNL1       -0.0583
     19 C           2.2878   -0.0864   19.6632 C.1     1  UNL1       -0.0405
     20 C           3.2748   -1.1261   19.2221 C.ar    1  UNL1        0.1224
     21 C           4.4900   -0.7230   18.4406 C.ar    1  UNL1        0.0276
     22 C           5.4770   -1.7628   17.9994 C.ar    1  UNL1        0.0034
     23 C           5.2489   -3.2057   18.3398 C.ar    1  UNL1        0.0148
     24 C           4.0337   -3.6089   19.1214 C.ar    1  UNL1        0.0600
     25 C           3.8056   -5.0518   19.4618 C.3     1  UNL1        0.0521
     26 N           3.0467   -2.5691   19.5625 N.ar    1  UNL1       -0.2414
@<TRIPOS>BOND
     1    16    17    1
     2    17    10    1
     3    10    11   ar
     4    11    12   ar
     5    12    13   ar
     6    13    14   ar
     7    14     1    1
     8     1     2    2
     9     1     3   am
    10     3     4    1
    11     4     5    1
    12     5     6    1
    13     6     7    2
    14     7    18    1
    15    18    19    3
    16    19    20    1
    17    20    21   ar
    18    21    22   ar
    19    22    23   ar
    20    23    24   ar
    21    24    25    1
    22    24    26   ar
    23     6     8    1
    24     8     9    1
    25    14    15   ar
    26    15    10   ar
    27     9     3    1
    28    26    20   ar
@<TRIPOS>MOLECULE
*****
 26 28 0 0 0
SMALL
GASTEIGER

@<TRIPOS>ATOM
      1 C           5.5374   -0.5161   18.8005 C.2     1  UNL1        0.2491
      2 O           6.9888   -0.3717   18.4505 O.2     1  UNL1       -0.2699
      3 N           4.6115    0.6555   18.6586 N.am    1  UNL1       -0.2754
      4 C           3.1601    0.5111   19.0085 C.3     1  UNL1        0.0981
      5 C           2.2342    1.6827   18.8666 C.3     1  UNL1        0.0442
      6 C           2.7598    2.9987   18.3748 C.2     1  UNL1       -0.0326
      7 C           1.8340    4.1703   18.2329 C.2     1  UNL1        0.0412
      8 C           4.2113    3.1431   18.0248 C.3     1  UNL1        0.0442
      9 C           5.1371    1.9715   18.1667 C.3     1  UNL1        0.0981
     10 C           4.3971   -3.4167   21.2573 C.ar    1  UNL1        0.1389
     11 C           3.9608   -4.4641   20.2761 C.ar    1  UNL1        0.0369
     12 C           4.0500   -4.1954   18.8031 C.ar    1  UNL1        0.0033
     13 C           4.5756   -2.8795   18.3112 C.ar    1  UNL1        0.0047
     14 C           5.0118   -1.8321   19.2923 C.ar    1  UNL1        0.0566
     15 C           4.9226   -2.1008   20.7654 C.ar    1  UNL1        0.0414
     16 C           5.0619   -2.8215   23.6973 C.3     1  UNL1        0.2525
     17 O           4.3078   -3.6853   22.7303 O.3     1  UNL1       -0.4714
     18 C           0.3825    4.0259   18.5829 C.1     1  UNL1       -0.0583
     19 C          -1.0689    3.8815   18.9328 C.1     1  UNL1       -0.0405
     20 C          -2.5203    3.7371   19.2828 C.ar    1  UNL1        0.1224
     21 C          -3.5662    3.8741   18.2164 C.ar    1  UNL1        0.0276
     22 C          -5.0176    3.7297   18.5663 C.ar    1  UNL1        0.0034
     23 C          -5.4232    3.4483   19.9827 C.ar    1  UNL1        0.0148
     24 C          -4.3773    3.3113   21.0493 C.ar    1  UNL1        0.0600
     25 C          -4.7829    3.0300   22.4657 C.3     1  UNL1        0.0521
     26 N          -2.9259    3.4557   20.6993 N.ar    1  UNL1       -0.2414
@<TRIPOS>BOND
     1    16    17    1
     2    17    10    1
     3    10    11   ar
     4    11    12   ar
     5    12    13   ar
     6    13    14   ar
     7    14     1    1
     8     1     2    2
     9     1     3   am
    10     3     4    1
    11     4     5    1
    12     5     6    1
    13     6     7    2
    14     7    18    1
    15    18    19    3
    16    19    20    1
    17    20    21   ar
    18    21    22   ar
    19    22    23   ar
    20    23    24   ar
    21    24    25    1
    22    24    26   ar
    23     6     8    1
    24     8     9    1
    25    14    15   ar
    26    15    10   ar
    27     9     3    1
    28    26    20   ar
@<TRIPOS>MOLECULE
*****
 26 28 0 0 0
SMALL
GASTEIGER

@<TRIPOS>ATOM
      1 C          -0.7224    3.4569   25.3462 C.2     1  UNL1        0.2491
      2 O          -1.7452    4.5498   25.4445 O.2     1  UNL1       -0.2699
      3 N          -0.4269    2.8236   24.0190 N.am    1  UNL1       -0.2754
      4 C           0.5959    1.7307   23.9206 C.3     1  UNL1        0.0981
      5 C           0.8914    1.0974   22.5933 C.3     1  UNL1        0.0442
      6 C           0.1643    1.5570   21.3645 C.2     1  UNL1       -0.0326
      7 C           0.4599    0.9237   20.0373 C.2     1  UNL1        0.0412
      8 C          -0.8584    2.6498   21.4629 C.3     1  UNL1        0.0442
      9 C          -1.1540    3.2831   22.7900 C.3     1  UNL1        0.0981
     10 C           0.1797    1.4098   28.6242 C.ar    1  UNL1        0.1389
     11 C           1.4589    2.0783   29.0328 C.ar    1  UNL1        0.0369
     12 C           2.0109    3.2062   28.2125 C.ar    1  UNL1        0.0033
     13 C           1.2838    3.6658   26.9836 C.ar    1  UNL1        0.0047
     14 C           0.0047    2.9974   26.5751 C.ar    1  UNL1        0.0566
     15 C          -0.5473    1.8694   27.3954 C.ar    1  UNL1        0.0414
     16 C          -1.7100   -0.3066   29.1065 C.3     1  UNL1        0.2525
     17 O          -0.3723    0.2818   29.4445 O.3     1  UNL1       -0.4714
     18 C           1.4826   -0.1692   19.9389 C.1     1  UNL1       -0.0583
     19 C           2.5054   -1.2620   19.8405 C.1     1  UNL1       -0.0405
     20 C           3.5281   -2.3549   19.7421 C.ar    1  UNL1        0.1224
     21 C           3.1742   -3.6564   19.0857 C.ar    1  UNL1        0.0276
     22 C           4.1970   -4.7492   18.9873 C.ar    1  UNL1        0.0034
     23 C           5.5736   -4.5406   19.5453 C.ar    1  UNL1        0.0148
     24 C           5.9275   -3.2391   20.2018 C.ar    1  UNL1        0.0600
     25 C           7.3040   -3.0305   20.7599 C.3     1  UNL1        0.0521
     26 N           4.9047   -2.1462   20.3002 N.ar    1  UNL1       -0.2414
@<TRIPOS>BOND
     1    16    17    1
     2    17    10    1
     3    10    11   ar
     4    11    12   ar
     5    12    13   ar
     6    13    14   ar
     7    14     1    1
     8     1     2    2
     9     1     3   am
    10     3     4    1
    11     4     5    1
    12     5     6    1
    13     6     7    2
    14     7    18    1
    15    18    19    3
    16    19    20    1
    17    20    21   ar
    18    21    22   ar
    19    22    23   ar
    20    23    24   ar
    21    24    25    1
    22    24    26   ar
    23     6     8    1
    24     8     9    1
    25    14    15   ar
    26    15    10   ar
    27     9     3    1
    28    26    20   ar
@<TRIPOS>MOLECULE
*****
 26 28 0 0 0
SMALL
GASTEIGER

@<TRIPOS>ATOM
      1 C           3.5310   -1.0532   18.1261 C.2     1  UNL1        0.2491
      2 O           3.5078   -0.9143   16.6328 O.2     1  UNL1       -0.2699
      3 N           2.6600   -0.1750   18.9747 N.am    1  UNL1       -0.2754
      4 C           2.6832   -0.3139   20.4681 C.3     1  UNL1        0.0981
      5 C           1.8121    0.5644   21.3166 C.3     1  UNL1        0.0442
      6 C           0.9179    1.5815   20.6718 C.2     1  UNL1       -0.0326
      7 C           0.0470    2.4597   21.5203 C.2     1  UNL1        0.0412
      8 C           0.8948    1.7204   19.1784 C.3     1  UNL1        0.0442
      9 C           1.7658    0.8422   18.3299 C.3     1  UNL1        0.0981
     10 C           6.7117   -2.7093   19.8263 C.ar    1  UNL1        0.1389
     11 C           6.2136   -4.1047   20.0606 C.ar    1  UNL1        0.0369
     12 C           4.8213   -4.4829   19.6500 C.ar    1  UNL1        0.0033
     13 C           3.9271   -3.4658   19.0053 C.ar    1  UNL1        0.0047
     14 C           4.4252   -2.0704   18.7710 C.ar    1  UNL1        0.0566
     15 C           5.8175   -1.6922   19.1815 C.ar    1  UNL1        0.0414
     16 C           9.2282   -2.4217   19.2479 C.3     1  UNL1        0.2525
     17 O           8.1040   -2.3311   20.2368 O.3     1  UNL1       -0.4714
     18 C           0.0701    2.3208   23.0137 C.1     1  UNL1       -0.0583
     19 C           0.0933    2.1819   24.5071 C.1     1  UNL1       -0.0405
     20 C           0.1165    2.0430   26.0004 C.ar    1  UNL1        0.1224
     21 C           0.8286    3.0637   26.8377 C.ar    1  UNL1        0.0276
     22 C           0.8518    2.9248   28.3310 C.ar    1  UNL1        0.0034
     23 C           0.1628    1.7651   28.9872 C.ar    1  UNL1        0.0148
     24 C          -0.5494    0.7443   28.1499 C.ar    1  UNL1        0.0600
     25 C          -1.2383   -0.4153   28.8061 C.3     1  UNL1        0.0521
     26 N          -0.5725    0.8833   26.6566 N.ar    1  UNL1       -0.2414
@<TRIPOS>BOND
     1    16    17    1
     2    17    10    1
     3    10    11   ar
     4    11    12   ar
     5    12    13   ar
     6    13    14   ar
     7    14     1    1
     8     1     2    2
     9     1     3   am
    10     3     4    1
    11     4     5    1
    12     5     6    1
    13     6     7    2
    14     7    18    1
    15    18    19    3
    16    19    20    1
    17    20    21   ar
    18    21    22   ar
    19    22    23   ar
    20    23    24   ar
    21    24    25    1
    22    24    26   ar
    23     6     8    1
    24     8     9    1
    25    14    15   ar
    26    15    10   ar
    27     9     3    1
    28    26    20   ar
@<TRIPOS>MOLECULE
*****
 26 28 0 0 0
SMALL
GASTEIGER

@<TRIPOS>ATOM
      1 C           8.7230   -6.1509   30.8136 C.2     1  UNL1        0.2491
      2 O           9.1680   -7.2355   31.7494 O.2     1  UNL1       -0.2699
      3 N           8.6629   -6.4117   29.3377 N.am    1  UNL1       -0.2754
      4 C           8.2179   -5.3271   28.4019 C.3     1  UNL1        0.0981
      5 C           8.1578   -5.5880   26.9260 C.3     1  UNL1        0.0442
      6 C           8.5425   -6.9334   26.3859 C.2     1  UNL1       -0.0326
      7 C           8.4823   -7.1942   24.9100 C.2     1  UNL1        0.0412
      8 C           8.9874   -8.0180   27.3216 C.3     1  UNL1        0.0442
      9 C           9.0476   -7.7572   28.7975 C.3     1  UNL1        0.0981
     10 C           6.5358   -3.1947   32.3060 C.ar    1  UNL1        0.1389
     11 C           7.5687   -2.1146   32.4341 C.ar    1  UNL1        0.0369
     12 C           8.9864   -2.3799   32.0220 C.ar    1  UNL1        0.0033
     13 C           9.3712   -3.7253   31.4819 C.ar    1  UNL1        0.0047
     14 C           8.3383   -4.8054   31.3538 C.ar    1  UNL1        0.0566
     15 C           6.9206   -4.5401   31.7659 C.ar    1  UNL1        0.0414
     16 C           4.8005   -1.7610   33.6034 C.3     1  UNL1        0.2525
     17 O           5.1181   -2.9294   32.7181 O.3     1  UNL1       -0.4714
     18 C           8.0374   -6.1096   23.9742 C.1     1  UNL1       -0.0583
     19 C           7.5925   -5.0250   23.0384 C.1     1  UNL1       -0.0405
     20 C           7.1475   -3.9404   22.1026 C.ar    1  UNL1        0.1224
     21 C           7.4690   -2.5075   22.4083 C.ar    1  UNL1        0.0276
     22 C           7.0240   -1.4229   21.4726 C.ar    1  UNL1        0.0034
     23 C           6.2576   -1.7712   20.2311 C.ar    1  UNL1        0.0148
     24 C           5.9362   -3.2041   19.9253 C.ar    1  UNL1        0.0600
     25 C           5.1698   -3.5524   18.6838 C.3     1  UNL1        0.0521
     26 N           6.3811   -4.2887   20.8611 N.ar    1  UNL1       -0.2414
@<TRIPOS>BOND
     1    16    17    1
     2    17    10    1
     3    10    11   ar
     4    11    12   ar
     5    12    13   ar
     6    13    14   ar
     7    14     1    1
     8     1     2    2
     9     1     3   am
    10     3     4    1
    11     4     5    1
    12     5     6    1
    13     6     7    2
    14     7    18    1
    15    18    19    3
    16    19    20    1
    17    20    21   ar
    18    21    22   ar
    19    22    23   ar
    20    23    24   ar
    21    24    25    1
    22    24    26   ar
    23     6     8    1
    24     8     9    1
    25    14    15   ar
    26    15    10   ar
    27     9     3    1
    28    26    20   ar
@<TRIPOS>MOLECULE
*****
 26 28 0 0 0
SMALL
GASTEIGER

@<TRIPOS>ATOM
      1 C         -15.1764   -7.9894   18.6740 C.2     1  UNL1        0.2491
      2 O         -14.5668   -9.3452   18.8748 O.2     1  UNL1       -0.2699
      3 N         -14.3111   -6.7648   18.7129 N.am    1  UNL1       -0.2754
      4 C         -14.9206   -5.4090   18.5121 C.3     1  UNL1        0.0981
      5 C         -14.0552   -4.1844   18.5510 C.3     1  UNL1        0.0442
      6 C         -12.5803   -4.3156   18.7906 C.2     1  UNL1       -0.0326
      7 C         -11.7150   -3.0910   18.8295 C.2     1  UNL1        0.0412
      8 C         -11.9708   -5.6714   18.9914 C.3     1  UNL1        0.0442
      9 C         -12.8361   -6.8960   18.9525 C.3     1  UNL1        0.0981
     10 C         -19.0510   -7.4515   19.3432 C.ar    1  UNL1        0.1389
     11 C         -19.6011   -7.5959   17.9552 C.ar    1  UNL1        0.0369
     12 C         -18.6763   -7.8715   16.8068 C.ar    1  UNL1        0.0033
     13 C         -17.2014   -8.0027   17.0464 C.ar    1  UNL1        0.0047
     14 C         -16.6514   -7.8582   18.4344 C.ar    1  UNL1        0.0566
     15 C         -17.5762   -7.5826   19.5828 C.ar    1  UNL1        0.0414
     16 C         -20.4640   -8.3055   21.3492 C.3     1  UNL1        0.2525
     17 O         -19.9758   -7.1759   20.4916 O.3     1  UNL1       -0.4714
     18 C         -12.3245   -1.7352   18.6287 C.1     1  UNL1       -0.0583
     19 C         -12.9341   -0.3795   18.4280 C.1     1  UNL1       -0.0405
     20 C         -13.5436    0.9763   18.2272 C.ar    1  UNL1        0.1224
     21 C         -14.8002    1.3492   18.9566 C.ar    1  UNL1        0.0276
     22 C         -15.4097    2.7050   18.7558 C.ar    1  UNL1        0.0034
     23 C         -14.7627    3.6879   17.8257 C.ar    1  UNL1        0.0148
     24 C         -13.5061    3.3151   17.0962 C.ar    1  UNL1        0.0600
     25 C         -12.8591    4.2980   16.1661 C.3     1  UNL1        0.0521
     26 N         -12.8966    1.9593   17.2970 N.ar    1  UNL1       -0.2414
@<TRIPOS>BOND
     1    16    17    1
     2    17    10    1
     3    10    11   ar
     4    11    12   ar
     5    12    13   ar
     6    13    14   ar
     7    14     1    1
     8     1     2    2
     9     1     3   am
    10     3     4    1
    11     4     5    1
    12     5     6    1
    13     6     7    2
    14     7    18    1
    15    18    19    3
    16    19    20    1
    17    20    21   ar
    18    21    22   ar
    19    22    23   ar
    20    23    24   ar
    21    24    25    1
    22    24    26   ar
    23     6     8    1
    24     8     9    1
    25    14    15   ar
    26    15    10   ar
    27     9     3    1
    28    26    20   ar
@<TRIPOS>MOLECULE
*****
 26 28 0 0 0
SMALL
GASTEIGER

@<TRIPOS>ATOM
      1 C           4.4344   -0.0532   30.6477 C.2     1  UNL1        0.2491
      2 O           5.0470   -0.1427   32.0139 O.2     1  UNL1       -0.2699
      3 N           4.9705   -0.8959   29.5286 N.am    1  UNL1       -0.2754
      4 C           4.3579   -0.8065   28.1624 C.3     1  UNL1        0.0981
      5 C           4.8941   -1.6492   27.0433 C.3     1  UNL1        0.0442
      6 C           6.0430   -2.5814   27.2905 C.2     1  UNL1       -0.0326
      7 C           6.5791   -3.4242   26.1715 C.2     1  UNL1        0.0412
      8 C           6.6556   -2.6709   28.6568 C.3     1  UNL1        0.0442
      9 C           6.1194   -1.8282   29.7758 C.3     1  UNL1        0.0981
     10 C           0.7356    1.2779   30.1025 C.ar    1  UNL1        0.1389
     11 C           0.9878    2.7434   29.9061 C.ar    1  UNL1        0.0369
     12 C           2.3888    3.2768   29.9570 C.ar    1  UNL1        0.0033
     13 C           3.5377    2.3446   30.2041 C.ar    1  UNL1        0.0047
     14 C           3.2855    0.8791   30.4005 C.ar    1  UNL1        0.0566
     15 C           1.8844    0.3457   30.3496 C.ar    1  UNL1        0.0414
     16 C          -1.1164   -0.0681   28.8742 C.3     1  UNL1        0.2525
     17 O          -0.6655    0.7445   30.0516 O.3     1  UNL1       -0.4714
     18 C           5.9665   -3.3347   24.8052 C.1     1  UNL1       -0.0583
     19 C           5.3538   -3.2452   23.4390 C.1     1  UNL1       -0.0405
     20 C           4.7412   -3.1558   22.0727 C.ar    1  UNL1        0.1224
     21 C           3.9056   -1.9666   21.7019 C.ar    1  UNL1        0.0276
     22 C           3.2929   -1.8771   20.3356 C.ar    1  UNL1        0.0034
     23 C           3.5159   -2.9768   19.3402 C.ar    1  UNL1        0.0148
     24 C           4.3515   -4.1661   19.7110 C.ar    1  UNL1        0.0600
     25 C           4.5745   -5.2658   18.7156 C.3     1  UNL1        0.0521
     26 N           4.9642   -4.2556   21.0773 N.ar    1  UNL1       -0.2414
@<TRIPOS>BOND
     1    16    17    1
     2    17    10    1
     3    10    11   ar
     4    11    12   ar
     5    12    13   ar
     6    13    14   ar
     7    14     1    1
     8     1     2    2
     9     1     3   am
    10     3     4    1
    11     4     5    1
    12     5     6    1
    13     6     7    2
    14     7    18    1
    15    18    19    3
    16    19    20    1
    17    20    21   ar
    18    21    22   ar
    19    22    23   ar
    20    23    24   ar
    21    24    25    1
    22    24    26   ar
    23     6     8    1
    24     8     9    1
    25    14    15   ar
    26    15    10   ar
    27     9     3    1
    28    26    20   ar
@<TRIPOS>MOLECULE
*****
 26 28 0 0 0
SMALL
GASTEIGER

@<TRIPOS>ATOM
      1 C           7.0765   -4.2147   21.5050 C.2     1  UNL1        0.2491
      2 O           8.2063   -5.1499   21.1902 O.2     1  UNL1       -0.2699
      3 N           6.7974   -3.8276   22.9270 N.am    1  UNL1       -0.2754
      4 C           5.6676   -2.8924   23.2418 C.3     1  UNL1        0.0981
      5 C           5.3885   -2.5053   24.6639 C.3     1  UNL1        0.0442
      6 C           6.2391   -3.0533   25.7711 C.2     1  UNL1       -0.0326
      7 C           5.9600   -2.6661   27.1931 C.2     1  UNL1        0.0412
      8 C           7.3689   -3.9884   25.4563 C.3     1  UNL1        0.0442
      9 C           7.6480   -4.3756   24.0343 C.3     1  UNL1        0.0981
     10 C           5.9814   -2.2202   18.2534 C.ar    1  UNL1        0.1389
     11 C           4.5247   -2.5707   18.1831 C.ar    1  UNL1        0.0369
     12 C           3.9185   -3.4691   19.2201 C.ar    1  UNL1        0.0033
     13 C           4.7691   -4.0171   20.3273 C.ar    1  UNL1        0.0047
     14 C           6.2258   -3.6667   20.3977 C.ar    1  UNL1        0.0566
     15 C           6.8320   -2.7682   19.3607 C.ar    1  UNL1        0.0414
     16 C           6.2900    0.1483   17.2312 C.3     1  UNL1        0.2525
     17 O           6.5876   -1.3218   17.2164 O.3     1  UNL1       -0.4714
     18 C           4.8302   -1.7310   27.5079 C.1     1  UNL1       -0.0583
     19 C           3.7004   -0.7958   27.8227 C.1     1  UNL1       -0.0405
     20 C           2.5707    0.1393   28.1374 C.ar    1  UNL1        0.1224
     21 C           2.8103    1.6196   28.1738 C.ar    1  UNL1        0.0276
     22 C           1.6805    2.5547   28.4886 C.ar    1  UNL1        0.0034
     23 C           0.3111    2.0096   28.7670 C.ar    1  UNL1        0.0148
     24 C           0.0714    0.5293   28.7306 C.ar    1  UNL1        0.0600
     25 C          -1.2980   -0.0158   29.0090 C.3     1  UNL1        0.0521
     26 N           1.2012   -0.4059   28.4158 N.ar    1  UNL1       -0.2414
@<TRIPOS>BOND
     1    16    17    1
     2    17    10    1
     3    10    11   ar
     4    11    12   ar
     5    12    13   ar
     6    13    14   ar
     7    14     1    1
     8     1     2    2
     9     1     3   am
    10     3     4    1
    11     4     5    1
    12     5     6    1
    13     6     7    2
    14     7    18    1
    15    18    19    3
    16    19    20    1
    17    20    21   ar
    18    21    22   ar
    19    22    23   ar
    20    23    24   ar
    21    24    25    1
    22    24    26   ar
    23     6     8    1
    24     8     9    1
    25    14    15   ar
    26    15    10   ar
    27     9     3    1
    28    26    20   ar
