@<TRIPOS>MOLECULE
*****
 33 35 0 0 0
SMALL
GASTEIGER

@<TRIPOS>ATOM
      1 C           4.5230   -0.8826   19.4322 C.ar    1  UNL1        0.1508
      2 C           4.8578   -1.3714   18.0542 C.ar    1  UNL1        0.0778
      3 CL          3.9573   -1.0396   16.9012 Cl      1  UNL1       -0.0808
      4 C           6.0930   -2.1921   17.8290 C.ar    1  UNL1        0.0142
      5 C           6.9934   -2.5240   18.9818 C.ar    1  UNL1        0.0187
      6 C           6.6586   -2.0351   20.3598 C.ar    1  UNL1        0.0870
      7 C           5.4234   -1.2145   20.5850 C.ar    1  UNL1        0.1650
      8 O           5.0886   -0.7257   21.9631 O.3     1  UNL1       -0.5032
      9 H           5.6511   -0.9330   22.6832 H       1  UNL1        0.2923
     10 N           7.5591   -2.3670   21.5127 N.am    1  UNL1       -0.2656
     11 C           7.2415   -3.5334   22.4008 C.2     1  UNL1        0.3083
     12 O           6.0234   -4.3678   22.1360 O.2     1  UNL1       -0.2521
     13 N           8.1419   -3.8652   23.5537 N.am    1  UNL1       -0.2672
     14 H           8.3585   -1.8193   21.6865 H       1  UNL1        0.1565
     15 H           8.9413   -3.3175   23.7275 H       1  UNL1        0.1564
     16 C           7.8242   -5.0316   24.4418 C.ar    1  UNL1        0.0644
     17 C           8.3138   -6.4031   24.0825 C.ar    1  UNL1        0.0157
     18 C           7.9962   -7.5694   24.9706 C.ar    1  UNL1        0.0036
     19 C           7.1890   -7.3643   26.2181 C.ar    1  UNL1        0.0306
     20 C           6.6994   -5.9927   26.5775 C.ar    1  UNL1        0.1518
     21 F           5.8922   -5.7875   27.8250 F       1  UNL1       -0.2032
     22 C           7.0170   -4.8263   25.6894 C.ar    1  UNL1        0.0985
     23 CL          6.5274   -3.4548   26.0487 Cl      1  UNL1       -0.0786
     24 S           3.2877   -0.0619   19.6573 S.O2    1  UNL1        0.0108
     25 O           4.0360    1.1745   19.2557 O.2     1  UNL1       -0.1686
     26 O           2.5395   -1.2984   20.0590 O.2     1  UNL1       -0.1686
     27 C          -1.6532    3.2207   20.5580 C.3     1  UNL1        0.0896
     28 N          -0.4179    2.4001   20.3329 N.3     1  UNL1       -0.2714
     29 C           0.1646    1.5973   21.4581 C.3     1  UNL1        0.0739
     30 C           1.3998    0.7766   21.2329 C.3     1  UNL1        0.0413
     31 C           2.0525    0.7587   19.8825 C.3     1  UNL1        0.1367
     32 C           1.4700    1.5615   18.7573 C.3     1  UNL1        0.0413
     33 C           0.2348    2.3822   18.9825 C.3     1  UNL1        0.0739
@<TRIPOS>BOND
     1    27    28    1
     2    28    29    1
     3    29    30    1
     4    30    31    1
     5    31    24    1
     6    24    25    2
     7    24    26    2
     8    24     1    1
     9     1     2   ar
    10     2     3    1
    11     2     4   ar
    12     4     5   ar
    13     5     6   ar
    14     6    10    1
    15    10    11   am
    16    11    12    2
    17    11    13   am
    18    13    16    1
    19    16    17   ar
    20    17    18   ar
    21    18    19   ar
    22    19    20   ar
    23    20    21    1
    24    20    22   ar
    25    22    23    1
    26     6     7   ar
    27     7     8    1
    28    31    32    1
    29    32    33    1
    30    33    28    1
    31     7     1   ar
    32    22    16   ar
    33    10    14    1
    34    13    15    1
    35     8     9    1
@<TRIPOS>MOLECULE
*****
 33 35 0 0 0
SMALL
GASTEIGER

@<TRIPOS>ATOM
      1 C           8.4415   -6.0144   25.9370 C.ar    1  UNL1        0.1508
      2 C           8.9413   -7.4237   25.8193 C.ar    1  UNL1        0.0778
      3 CL          8.9686   -8.3132   27.0269 Cl      1  UNL1       -0.0808
      4 C           9.4138   -7.9437   24.4940 C.ar    1  UNL1        0.0142
      5 C           9.3865   -7.0543   23.2864 C.ar    1  UNL1        0.0187
      6 C           8.8867   -5.6450   23.4042 C.ar    1  UNL1        0.0870
      7 C           8.4142   -5.1250   24.7295 C.ar    1  UNL1        0.1650
      8 O           7.9144   -3.7156   24.8472 O.3     1  UNL1       -0.5032
      9 H           7.8973   -3.1600   24.0929 H       1  UNL1        0.2923
     10 N           8.8594   -4.7555   22.1966 N.am    1  UNL1       -0.2656
     11 C           7.5538   -4.2171   21.6911 C.2     1  UNL1        0.3083
     12 O           6.2755   -4.5682   22.3932 O.2     1  UNL1       -0.2521
     13 N           7.5264   -3.3277   20.4836 N.am    1  UNL1       -0.2672
     14 H           9.6983   -4.5251   21.7359 H       1  UNL1        0.1565
     15 H           8.3653   -3.0973   20.0228 H       1  UNL1        0.1564
     16 C           6.2208   -2.7893   19.9781 C.ar    1  UNL1        0.0644
     17 C           5.2567   -3.6980   19.2747 C.ar    1  UNL1        0.0157
     18 C           3.9511   -3.1596   18.7692 C.ar    1  UNL1        0.0036
     19 C           3.6096   -1.7125   18.9671 C.ar    1  UNL1        0.0306
     20 C           4.5737   -0.8037   19.6705 C.ar    1  UNL1        0.1518
     21 F           4.2321    0.6434   19.8684 F       1  UNL1       -0.2032
     22 C           5.8793   -1.3421   20.1760 C.ar    1  UNL1        0.0985
     23 CL          6.8433   -0.4334   20.8794 Cl      1  UNL1       -0.0786
     24 S           7.9690   -5.4944   27.2623 S.O2    1  UNL1        0.0108
     25 O           9.3828   -5.1587   27.6346 O.2     1  UNL1       -0.1686
     26 O           6.5553   -5.8301   26.8900 O.2     1  UNL1       -0.1686
     27 C           6.0791   -3.4146   32.5635 C.3     1  UNL1        0.0896
     28 N           6.5516   -3.9346   31.2382 N.3     1  UNL1       -0.2714
     29 C           6.5929   -3.0241   30.0469 C.3     1  UNL1        0.0739
     30 C           7.0654   -3.5441   28.7216 C.3     1  UNL1        0.0413
     31 C           7.4965   -4.9745   28.5876 C.3     1  UNL1        0.1367
     32 C           7.4552   -5.8849   29.7789 C.3     1  UNL1        0.0413
     33 C           6.9827   -5.3650   31.1042 C.3     1  UNL1        0.0739
@<TRIPOS>BOND
     1    27    28    1
     2    28    29    1
     3    29    30    1
     4    30    31    1
     5    31    24    1
     6    24    25    2
     7    24    26    2
     8    24     1    1
     9     1     2   ar
    10     2     3    1
    11     2     4   ar
    12     4     5   ar
    13     5     6   ar
    14     6    10    1
    15    10    11   am
    16    11    12    2
    17    11    13   am
    18    13    16    1
    19    16    17   ar
    20    17    18   ar
    21    18    19   ar
    22    19    20   ar
    23    20    21    1
    24    20    22   ar
    25    22    23    1
    26     6     7   ar
    27     7     8    1
    28    31    32    1
    29    32    33    1
    30    33    28    1
    31     7     1   ar
    32    22    16   ar
    33    10    14    1
    34    13    15    1
    35     8     9    1
@<TRIPOS>MOLECULE
*****
 33 35 0 0 0
SMALL
GASTEIGER

@<TRIPOS>ATOM
      1 C          -0.9165    3.4604   18.7667 C.ar    1  UNL1        0.1508
      2 C          -1.6036    4.2666   17.7048 C.ar    1  UNL1        0.0778
      3 CL         -0.8207    4.7936   16.5389 Cl      1  UNL1       -0.0808
      4 C          -3.0738    4.5459   17.8087 C.ar    1  UNL1        0.0142
      5 C          -3.8567    4.0189   18.9745 C.ar    1  UNL1        0.0187
      6 C          -3.1696    3.2127   20.0365 C.ar    1  UNL1        0.0870
      7 C          -1.6995    2.9335   19.9326 C.ar    1  UNL1        0.1650
      8 O          -1.0123    2.1272   20.9946 O.3     1  UNL1       -0.5032
      9 H          -1.5014    1.7980   21.7229 H       1  UNL1        0.2923
     10 N          -3.9525    2.6857   21.2024 N.am    1  UNL1       -0.2656
     11 C          -4.2260    3.5695   22.3832 C.2     1  UNL1        0.3083
     12 O          -3.7164    4.9803   22.3980 O.2     1  UNL1       -0.2521
     13 N          -5.0089    3.0426   23.5490 N.am    1  UNL1       -0.2672
     14 H          -4.2869    1.7598   21.1927 H       1  UNL1        0.1565
     15 H          -5.3433    2.1166   23.5393 H       1  UNL1        0.1564
     16 C          -5.2823    3.9263   24.7298 C.ar    1  UNL1        0.0644
     17 C          -4.3461    3.9232   25.9017 C.ar    1  UNL1        0.0157
     18 C          -4.6195    4.8070   27.0825 C.ar    1  UNL1        0.0036
     19 C          -5.8292    5.6939   27.0913 C.ar    1  UNL1        0.0306
     20 C          -6.7655    5.6971   25.9193 C.ar    1  UNL1        0.1518
     21 F          -7.9751    6.5840   25.9281 F       1  UNL1       -0.2032
     22 C          -6.4920    4.8133   24.7386 C.ar    1  UNL1        0.0985
     23 CL         -7.4282    4.8164   23.5666 Cl      1  UNL1       -0.0786
     24 S           0.5536    3.1811   18.6629 S.O2    1  UNL1        0.0108
     25 O           0.2563    1.8410   18.0582 O.2     1  UNL1       -0.1686
     26 O           0.8509    4.5213   19.2675 O.2     1  UNL1       -0.1686
     27 C           6.4341    2.0641   18.2473 C.3     1  UNL1        0.0896
     28 N           4.9640    2.3434   18.3512 N.3     1  UNL1       -0.2714
     29 C           4.0110    1.2328   18.6806 C.3     1  UNL1        0.0739
     30 C           2.5409    1.5121   18.7845 C.3     1  UNL1        0.0413
     31 C           2.0237    2.9019   18.5590 C.3     1  UNL1        0.1367
     32 C           2.9767    4.0124   18.2295 C.3     1  UNL1        0.0413
     33 C           4.4468    3.7332   18.1257 C.3     1  UNL1        0.0739
@<TRIPOS>BOND
     1    27    28    1
     2    28    29    1
     3    29    30    1
     4    30    31    1
     5    31    24    1
     6    24    25    2
     7    24    26    2
     8    24     1    1
     9     1     2   ar
    10     2     3    1
    11     2     4   ar
    12     4     5   ar
    13     5     6   ar
    14     6    10    1
    15    10    11   am
    16    11    12    2
    17    11    13   am
    18    13    16    1
    19    16    17   ar
    20    17    18   ar
    21    18    19   ar
    22    19    20   ar
    23    20    21    1
    24    20    22   ar
    25    22    23    1
    26     6     7   ar
    27     7     8    1
    28    31    32    1
    29    32    33    1
    30    33    28    1
    31     7     1   ar
    32    22    16   ar
    33    10    14    1
    34    13    15    1
    35     8     9    1
@<TRIPOS>MOLECULE
*****
 33 35 0 0 0
SMALL
GASTEIGER

@<TRIPOS>ATOM
      1 C          -0.1146    2.8785   20.1475 C.ar    1  UNL1        0.1508
      2 C           0.6508    4.0011   19.5120 C.ar    1  UNL1        0.0778
      3 CL          0.2029    5.4193   19.7074 Cl      1  UNL1       -0.0808
      4 C           1.8641    3.7055   18.6810 C.ar    1  UNL1        0.0142
      5 C           2.3120    2.2874   18.4856 C.ar    1  UNL1        0.0187
      6 C           1.5466    1.1648   19.1211 C.ar    1  UNL1        0.0870
      7 C           0.3333    1.4604   19.9521 C.ar    1  UNL1        0.1650
      8 O          -0.4322    0.3378   20.5877 O.3     1  UNL1       -0.5032
      9 H          -0.1524   -0.5481   20.4656 H       1  UNL1        0.2923
     10 N           1.9945   -0.2534   18.9257 N.am    1  UNL1       -0.2656
     11 C           3.0982   -0.8147   19.7723 C.2     1  UNL1        0.3083
     12 O           3.7540    0.0422   20.8143 O.2     1  UNL1       -0.2521
     13 N           3.5461   -2.2329   19.5770 N.am    1  UNL1       -0.2672
     14 H           1.5640   -0.8158   18.2419 H       1  UNL1        0.1565
     15 H           3.1156   -2.7953   18.8931 H       1  UNL1        0.1564
     16 C           4.6498   -2.7942   20.4236 C.ar    1  UNL1        0.0644
     17 C           4.3781   -3.1888   21.8450 C.ar    1  UNL1        0.0157
     18 C           5.4818   -3.7502   22.6916 C.ar    1  UNL1        0.0036
     19 C           6.8572   -3.9169   22.1167 C.ar    1  UNL1        0.0306
     20 C           7.1290   -3.5222   20.6953 C.ar    1  UNL1        0.1518
     21 F           8.5044   -3.6889   20.1205 F       1  UNL1       -0.2032
     22 C           6.0252   -2.9609   19.8487 C.ar    1  UNL1        0.0985
     23 CL          6.2969   -2.5663   18.4273 Cl      1  UNL1       -0.0786
     24 S          -1.3279    3.1741   20.9785 S.O2    1  UNL1        0.0108
     25 O          -0.5149    3.0011   22.2271 O.2     1  UNL1       -0.1686
     26 O          -2.1409    3.3472   19.7299 O.2     1  UNL1       -0.1686
     27 C          -6.1812    4.3564   24.3024 C.3     1  UNL1        0.0896
     28 N          -4.9679    4.0609   23.4714 N.3     1  UNL1       -0.2714
     29 C          -5.1248    3.5320   22.0766 C.3     1  UNL1        0.0739
     30 C          -3.9115    3.2364   21.2456 C.3     1  UNL1        0.0413
     31 C          -2.5413    3.4697   21.8095 C.3     1  UNL1        0.1367
     32 C          -2.3843    3.9985   23.2043 C.3     1  UNL1        0.0413
     33 C          -3.5976    4.2941   24.0353 C.3     1  UNL1        0.0739
@<TRIPOS>BOND
     1    27    28    1
     2    28    29    1
     3    29    30    1
     4    30    31    1
     5    31    24    1
     6    24    25    2
     7    24    26    2
     8    24     1    1
     9     1     2   ar
    10     2     3    1
    11     2     4   ar
    12     4     5   ar
    13     5     6   ar
    14     6    10    1
    15    10    11   am
    16    11    12    2
    17    11    13   am
    18    13    16    1
    19    16    17   ar
    20    17    18   ar
    21    18    19   ar
    22    19    20   ar
    23    20    21    1
    24    20    22   ar
    25    22    23    1
    26     6     7   ar
    27     7     8    1
    28    31    32    1
    29    32    33    1
    30    33    28    1
    31     7     1   ar
    32    22    16   ar
    33    10    14    1
    34    13    15    1
    35     8     9    1
@<TRIPOS>MOLECULE
*****
 33 35 0 0 0
SMALL
GASTEIGER

@<TRIPOS>ATOM
      1 C           4.4463   -0.7601   19.3917 C.ar    1  UNL1        0.1508
      2 C           4.7881   -1.3189   18.0423 C.ar    1  UNL1        0.0778
      3 CL          3.8862   -1.0584   16.8723 Cl      1  UNL1       -0.0808
      4 C           6.0316   -2.1383   17.8628 C.ar    1  UNL1        0.0142
      5 C           6.9334   -2.3989   19.0327 C.ar    1  UNL1        0.0187
      6 C           6.5917   -1.8401   20.3821 C.ar    1  UNL1        0.0870
      7 C           5.3482   -1.0207   20.5616 C.ar    1  UNL1        0.1650
      8 O           5.0065   -0.4619   21.9111 O.3     1  UNL1       -0.5032
      9 H           5.5698   -0.6247   22.6420 H       1  UNL1        0.2923
     10 N           7.4936   -2.1007   21.5522 N.am    1  UNL1       -0.2656
     11 C           7.2277   -3.2654   22.4592 C.2     1  UNL1        0.3083
     12 O           6.0600   -4.1695   22.1963 O.2     1  UNL1       -0.2521
     13 N           8.1295   -3.5259   23.6292 N.am    1  UNL1       -0.2672
     14 H           8.2599   -1.5072   21.7247 H       1  UNL1        0.1565
     15 H           8.8959   -2.9325   23.8017 H       1  UNL1        0.1564
     16 C           7.8636   -4.6907   24.5363 C.ar    1  UNL1        0.0644
     17 C           6.8948   -4.5503   25.6727 C.ar    1  UNL1        0.0157
     18 C           6.6289   -5.7150   26.5798 C.ar    1  UNL1        0.0036
     19 C           7.3319   -7.0201   26.3504 C.ar    1  UNL1        0.0306
     20 C           8.3008   -7.1604   25.2139 C.ar    1  UNL1        0.1518
     21 F           9.0037   -8.4655   24.9845 F       1  UNL1       -0.2032
     22 C           8.5666   -5.9957   24.3068 C.ar    1  UNL1        0.0985
     23 CL          9.5355   -6.1361   23.1703 Cl      1  UNL1       -0.0786
     24 S           3.2028    0.0592   19.5712 S.O2    1  UNL1        0.0108
     25 O           4.0048    1.3147   19.3967 O.2     1  UNL1       -0.1686
     26 O           2.4007   -1.1963   19.7457 O.2     1  UNL1       -0.1686
     27 C          -1.7715    3.3367   20.2892 C.3     1  UNL1        0.0896
     28 N          -0.5279    2.5173   20.1097 N.3     1  UNL1       -0.2714
     29 C           0.1623    2.4834   18.7784 C.3     1  UNL1        0.0739
     30 C           1.4059    1.6641   18.5989 C.3     1  UNL1        0.0413
     31 C           1.9592    0.8786   19.7507 C.3     1  UNL1        0.1367
     32 C           1.2690    0.9124   21.0820 C.3     1  UNL1        0.0413
     33 C           0.0255    1.7318   21.2615 C.3     1  UNL1        0.0739
@<TRIPOS>BOND
     1    27    28    1
     2    28    29    1
     3    29    30    1
     4    30    31    1
     5    31    24    1
     6    24    25    2
     7    24    26    2
     8    24     1    1
     9     1     2   ar
    10     2     3    1
    11     2     4   ar
    12     4     5   ar
    13     5     6   ar
    14     6    10    1
    15    10    11   am
    16    11    12    2
    17    11    13   am
    18    13    16    1
    19    16    17   ar
    20    17    18   ar
    21    18    19   ar
    22    19    20   ar
    23    20    21    1
    24    20    22   ar
    25    22    23    1
    26     6     7   ar
    27     7     8    1
    28    31    32    1
    29    32    33    1
    30    33    28    1
    31     7     1   ar
    32    22    16   ar
    33    10    14    1
    34    13    15    1
    35     8     9    1
@<TRIPOS>MOLECULE
*****
 33 35 0 0 0
SMALL
GASTEIGER

@<TRIPOS>ATOM
      1 C           4.0976   -0.3643   31.0433 C.ar    1  UNL1        0.1508
      2 C           5.3774   -0.7873   30.3853 C.ar    1  UNL1        0.0778
      3 CL          6.6451   -0.8544   31.1843 Cl      1  UNL1       -0.0808
      4 C           5.3896   -1.1432   28.9282 C.ar    1  UNL1        0.0142
      5 C           4.1220   -1.0761   28.1291 C.ar    1  UNL1        0.0187
      6 C           2.8421   -0.6531   28.7871 C.ar    1  UNL1        0.0870
      7 C           2.8299   -0.2972   30.2442 C.ar    1  UNL1        0.1650
      8 O           1.5500    0.1258   30.9023 O.3     1  UNL1       -0.5032
      9 H           0.7582    0.1677   30.4031 H       1  UNL1        0.2923
     10 N           1.5744   -0.5860   27.9881 N.am    1  UNL1       -0.2656
     11 C           1.1236    0.7204   27.4050 C.2     1  UNL1        0.3083
     12 O           1.9406    1.9598   27.6211 O.2     1  UNL1       -0.2521
     13 N          -0.1440    0.7876   26.6060 N.am    1  UNL1       -0.2672
     14 H           1.0383   -1.3995   27.8463 H       1  UNL1        0.1565
     15 H          -0.6802   -0.0259   26.4642 H       1  UNL1        0.1564
     16 C          -0.5948    2.0941   26.0230 C.ar    1  UNL1        0.0644
     17 C          -1.3953    3.0507   26.8560 C.ar    1  UNL1        0.0157
     18 C          -1.8461    4.3572   26.2730 C.ar    1  UNL1        0.0036
     19 C          -1.4964    4.7070   24.8570 C.ar    1  UNL1        0.0306
     20 C          -0.6958    3.7504   24.0239 C.ar    1  UNL1        0.1518
     21 F          -0.3461    4.1002   22.6078 F       1  UNL1       -0.2032
     22 C          -0.2450    2.4439   24.6069 C.ar    1  UNL1        0.0985
     23 CL          0.5555    1.4873   23.7738 Cl      1  UNL1       -0.0786
     24 S           4.0854   -0.0084   32.5004 S.O2    1  UNL1        0.0108
     25 O           4.5305    1.3840   32.1640 O.2     1  UNL1       -0.1686
     26 O           3.6403   -1.4007   32.8368 O.2     1  UNL1       -0.1686
     27 C           4.0366    1.4153   38.3289 C.3     1  UNL1        0.0896
     28 N           4.0488    1.0594   36.8717 N.3     1  UNL1       -0.2714
     29 C           3.3495    1.9397   35.8788 C.3     1  UNL1        0.0739
     30 C           3.3617    1.5838   34.4217 C.3     1  UNL1        0.0413
     31 C           4.0732    0.3476   33.9575 C.3     1  UNL1        0.1367
     32 C           4.7724   -0.5328   34.9505 C.3     1  UNL1        0.0413
     33 C           4.7602   -0.1768   36.4076 C.3     1  UNL1        0.0739
@<TRIPOS>BOND
     1    27    28    1
     2    28    29    1
     3    29    30    1
     4    30    31    1
     5    31    24    1
     6    24    25    2
     7    24    26    2
     8    24     1    1
     9     1     2   ar
    10     2     3    1
    11     2     4   ar
    12     4     5   ar
    13     5     6   ar
    14     6    10    1
    15    10    11   am
    16    11    12    2
    17    11    13   am
    18    13    16    1
    19    16    17   ar
    20    17    18   ar
    21    18    19   ar
    22    19    20   ar
    23    20    21    1
    24    20    22   ar
    25    22    23    1
    26     6     7   ar
    27     7     8    1
    28    31    32    1
    29    32    33    1
    30    33    28    1
    31     7     1   ar
    32    22    16   ar
    33    10    14    1
    34    13    15    1
    35     8     9    1
@<TRIPOS>MOLECULE
*****
 33 35 0 0 0
SMALL
GASTEIGER

@<TRIPOS>ATOM
      1 C           1.0980    2.2895   19.4348 C.ar    1  UNL1        0.1508
      2 C           1.3641    3.6105   18.7761 C.ar    1  UNL1        0.0778
      3 CL          2.6883    3.8684   18.1204 Cl      1  UNL1       -0.0808
      4 C           0.3060    4.6738   18.7732 C.ar    1  UNL1        0.0142
      5 C          -1.0182    4.4159   19.4289 C.ar    1  UNL1        0.0187
      6 C          -1.2843    3.0949   20.0876 C.ar    1  UNL1        0.0870
      7 C          -0.2262    2.0316   20.0905 C.ar    1  UNL1        0.1650
      8 O          -0.4924    0.7105   20.7492 O.3     1  UNL1       -0.5032
      9 H          -1.3196    0.5494   21.1588 H       1  UNL1        0.2923
     10 N          -2.6085    2.8370   20.7434 N.am    1  UNL1       -0.2656
     11 C          -2.9218    3.4601   22.0714 C.2     1  UNL1        0.3083
     12 O          -1.9108    4.3411   22.7436 O.2     1  UNL1       -0.2521
     13 N          -4.2459    3.2022   22.7272 N.am    1  UNL1       -0.2672
     14 H          -3.2720    2.2587   20.3022 H       1  UNL1        0.1565
     15 H          -4.9094    2.6240   22.2860 H       1  UNL1        0.1564
     16 C          -4.5592    3.8253   24.0552 C.ar    1  UNL1        0.0644
     17 C          -3.6378    3.6124   25.2195 C.ar    1  UNL1        0.0157
     18 C          -3.9511    4.2355   26.5475 C.ar    1  UNL1        0.0036
     19 C          -5.1857    5.0715   26.7112 C.ar    1  UNL1        0.0306
     20 C          -6.1071    5.2845   25.5468 C.ar    1  UNL1        0.1518
     21 F          -7.3417    6.1205   25.7104 F       1  UNL1       -0.2032
     22 C          -5.7939    4.6614   24.2188 C.ar    1  UNL1        0.0985
     23 CL         -6.7152    4.8742   23.0544 Cl      1  UNL1       -0.0786
     24 S           2.1560    1.2262   19.4377 S.O2    1  UNL1        0.0108
     25 O           2.8303    1.9004   20.5957 O.2     1  UNL1       -0.1686
     26 O           1.4817    0.5520   18.2798 O.2     1  UNL1       -0.1686
     27 C           6.3883   -3.0267   19.4494 C.3     1  UNL1        0.0896
     28 N           5.3302   -1.9635   19.4465 N.3     1  UNL1       -0.2714
     29 C           5.6851   -0.5533   19.0786 C.3     1  UNL1        0.0739
     30 C           4.6270    0.5099   19.0757 C.3     1  UNL1        0.0413
     31 C           3.2141    0.1630   19.4406 C.3     1  UNL1        0.1367
     32 C           2.8592   -1.2472   19.8085 C.3     1  UNL1        0.0413
     33 C           3.9173   -2.3105   19.8114 C.3     1  UNL1        0.0739
@<TRIPOS>BOND
     1    27    28    1
     2    28    29    1
     3    29    30    1
     4    30    31    1
     5    31    24    1
     6    24    25    2
     7    24    26    2
     8    24     1    1
     9     1     2   ar
    10     2     3    1
    11     2     4   ar
    12     4     5   ar
    13     5     6   ar
    14     6    10    1
    15    10    11   am
    16    11    12    2
    17    11    13   am
    18    13    16    1
    19    16    17   ar
    20    17    18   ar
    21    18    19   ar
    22    19    20   ar
    23    20    21    1
    24    20    22   ar
    25    22    23    1
    26     6     7   ar
    27     7     8    1
    28    31    32    1
    29    32    33    1
    30    33    28    1
    31     7     1   ar
    32    22    16   ar
    33    10    14    1
    34    13    15    1
    35     8     9    1
@<TRIPOS>MOLECULE
*****
 33 35 0 0 0
SMALL
GASTEIGER

@<TRIPOS>ATOM
      1 C           4.7219   -1.3932   19.8428 C.ar    1  UNL1        0.1508
      2 C           4.7790   -1.9570   18.4539 C.ar    1  UNL1        0.0778
      3 CL          5.4458   -3.2780   18.2075 Cl      1  UNL1       -0.0808
      4 C           4.1694   -1.1999   17.3115 C.ar    1  UNL1        0.0142
      5 C           3.5027    0.1210   17.5578 C.ar    1  UNL1        0.0187
      6 C           3.4456    0.6848   18.9466 C.ar    1  UNL1        0.0870
      7 C           4.0552   -0.0723   20.0891 C.ar    1  UNL1        0.1650
      8 O           3.9981    0.4915   21.4780 O.3     1  UNL1       -0.5032
      9 H           3.5816    1.3167   21.6318 H       1  UNL1        0.2923
     10 N           2.7789    2.0057   19.1930 N.am    1  UNL1       -0.2656
     11 C           1.2923    2.1354   19.0409 C.2     1  UNL1        0.3083
     12 O           0.4724    0.9441   18.6425 O.2     1  UNL1       -0.2521
     13 N           0.6255    3.4562   19.2873 N.am    1  UNL1       -0.2672
     14 H           3.3170    2.7875   19.4546 H       1  UNL1        0.1565
     15 H           1.1636    4.2381   19.5489 H       1  UNL1        0.1564
     16 C          -0.8611    3.5859   19.1352 C.ar    1  UNL1        0.0644
     17 C          -1.4467    4.0049   17.8194 C.ar    1  UNL1        0.0157
     18 C          -2.9333    4.1346   17.6673 C.ar    1  UNL1        0.0036
     19 C          -3.8344    3.8452   18.8311 C.ar    1  UNL1        0.0306
     20 C          -3.2488    3.4262   20.1470 C.ar    1  UNL1        0.1518
     21 F          -4.1498    3.1368   21.3108 F       1  UNL1       -0.2032
     22 C          -1.7622    3.2965   20.2991 C.ar    1  UNL1        0.0985
     23 CL         -1.1766    2.8775   21.6149 Cl      1  UNL1       -0.0786
     24 S           5.3315   -2.1503   20.9852 S.O2    1  UNL1        0.0108
     25 O           3.9888   -2.7310   21.3168 O.2     1  UNL1       -0.1686
     26 O           6.6742   -1.5696   20.6536 O.2     1  UNL1       -0.1686
     27 C           7.7699   -5.1786   25.5551 C.3     1  UNL1        0.0896
     28 N           7.1603   -4.4215   24.4126 N.3     1  UNL1       -0.2714
     29 C           6.0597   -3.4351   24.6688 C.3     1  UNL1        0.0739
     30 C           5.4501   -2.6781   23.5263 C.3     1  UNL1        0.0413
     31 C           5.9411   -2.9074   22.1277 C.3     1  UNL1        0.1367
     32 C           7.0417   -3.8937   21.8715 C.3     1  UNL1        0.0413
     33 C           7.6513   -4.6508   23.0139 C.3     1  UNL1        0.0739
@<TRIPOS>BOND
     1    27    28    1
     2    28    29    1
     3    29    30    1
     4    30    31    1
     5    31    24    1
     6    24    25    2
     7    24    26    2
     8    24     1    1
     9     1     2   ar
    10     2     3    1
    11     2     4   ar
    12     4     5   ar
    13     5     6   ar
    14     6    10    1
    15    10    11   am
    16    11    12    2
    17    11    13   am
    18    13    16    1
    19    16    17   ar
    20    17    18   ar
    21    18    19   ar
    22    19    20   ar
    23    20    21    1
    24    20    22   ar
    25    22    23    1
    26     6     7   ar
    27     7     8    1
    28    31    32    1
    29    32    33    1
    30    33    28    1
    31     7     1   ar
    32    22    16   ar
    33    10    14    1
    34    13    15    1
    35     8     9    1
@<TRIPOS>MOLECULE
*****
 33 35 0 0 0
SMALL
GASTEIGER

@<TRIPOS>ATOM
      1 C           1.8873    0.7525   27.4655 C.ar    1  UNL1        0.1508
      2 C           0.4149    1.0348   27.5143 C.ar    1  UNL1        0.0778
      3 CL         -0.3304    0.9094   28.8100 Cl      1  UNL1       -0.0808
      4 C          -0.3123    1.4426   26.2673 C.ar    1  UNL1        0.0142
      5 C           0.4329    1.5680   24.9716 C.ar    1  UNL1        0.0187
      6 C           1.9053    1.2856   24.9228 C.ar    1  UNL1        0.0870
      7 C           2.6324    0.8779   26.1698 C.ar    1  UNL1        0.1650
      8 O           4.1049    0.5955   26.1210 O.3     1  UNL1       -0.5032
      9 H           4.5704    0.6739   25.3116 H       1  UNL1        0.2923
     10 N           2.6505    1.4110   23.6271 N.am    1  UNL1       -0.2656
     11 C           3.2145    0.1889   22.9649 C.2     1  UNL1        0.3083
     12 O           3.0331   -1.1586   23.5986 O.2     1  UNL1       -0.2521
     13 N           3.9597    0.3143   21.6692 N.am    1  UNL1       -0.2672
     14 H           2.7696    2.2954   23.2112 H       1  UNL1        0.1565
     15 H           4.0787    1.1987   21.2534 H       1  UNL1        0.1564
     16 C           4.5236   -0.9079   21.0071 C.ar    1  UNL1        0.0644
     17 C           5.9770   -1.2434   21.1651 C.ar    1  UNL1        0.0157
     18 C           6.5409   -2.4655   20.5030 C.ar    1  UNL1        0.0036
     19 C           5.6515   -3.3521   19.6828 C.ar    1  UNL1        0.0306
     20 C           4.1980   -3.0166   19.5247 C.ar    1  UNL1        0.1518
     21 F           3.3085   -3.9032   18.7046 F       1  UNL1       -0.2032
     22 C           3.6341   -1.7945   20.1869 C.ar    1  UNL1        0.0985
     23 CL          2.1807   -1.4589   20.0288 Cl      1  UNL1       -0.0786
     24 S           2.6144    0.3447   28.7125 S.O2    1  UNL1        0.0108
     25 O           2.7130    1.7834   29.1255 O.2     1  UNL1       -0.1686
     26 O           2.5159   -1.0939   28.2996 O.2     1  UNL1       -0.1686
     27 C           5.5231   -1.2862   33.7005 C.3     1  UNL1        0.0896
     28 N           4.7959   -0.8785   32.4535 N.3     1  UNL1       -0.2714
     29 C           3.5104   -0.1119   32.5516 C.3     1  UNL1        0.0739
     30 C           2.7832    0.2958   31.3046 C.3     1  UNL1        0.0413
     31 C           3.3416   -0.0630   29.9595 C.3     1  UNL1        0.1367
     32 C           4.6271   -0.8296   29.8614 C.3     1  UNL1        0.0413
     33 C           5.3543   -1.2374   31.1084 C.3     1  UNL1        0.0739
@<TRIPOS>BOND
     1    27    28    1
     2    28    29    1
     3    29    30    1
     4    30    31    1
     5    31    24    1
     6    24    25    2
     7    24    26    2
     8    24     1    1
     9     1     2   ar
    10     2     3    1
    11     2     4   ar
    12     4     5   ar
    13     5     6   ar
    14     6    10    1
    15    10    11   am
    16    11    12    2
    17    11    13   am
    18    13    16    1
    19    16    17   ar
    20    17    18   ar
    21    18    19   ar
    22    19    20   ar
    23    20    21    1
    24    20    22   ar
    25    22    23    1
    26     6     7   ar
    27     7     8    1
    28    31    32    1
    29    32    33    1
    30    33    28    1
    31     7     1   ar
    32    22    16   ar
    33    10    14    1
    34    13    15    1
    35     8     9    1
