@<TRIPOS>MOLECULE
*****
 27 29 0 0 0
SMALL
GASTEIGER

@<TRIPOS>ATOM
      1 C         -10.8467  -17.0987   21.2894 C.ar    1  UNL1        0.2947
      2 C         -10.3287  -16.1669   22.3445 C.ar    1  UNL1        0.1146
      3 C          -8.9192  -16.3033   22.8392 C.ar    1  UNL1        0.1700
      4 O          -8.4012  -15.3714   23.8944 O.3     1  UNL1       -0.5030
      5 C          -8.0277  -17.3715   22.2787 C.ar    1  UNL1        0.1633
      6 C          -8.5457  -18.3033   21.2236 C.ar    1  UNL1        0.1813
      7 C          -9.9552  -18.1669   20.7289 C.ar    1  UNL1        0.0999
      8 S          -7.6542  -19.3715   20.6631 S.O2    1  UNL1        0.1585
      9 O          -7.1971  -20.5324   19.8304 O.2     1  UNL1       -0.1323
     10 O          -8.9049  -19.6383   19.8793 O.2     1  UNL1       -0.1323
     11 N          -6.2447  -19.5079   21.1578 N.2     1  UNL1        0.0584
     12 C          -5.7267  -18.5760   22.2129 C.cat   1  UNL1        0.4012
     13 N          -6.6182  -17.5078   22.7734 N.pl3   1  UNL1       -0.1994
     14 H          -8.9581  -14.7041   24.2445 H       1  UNL1        0.2923
     15 H          -6.2782  -16.8962   23.4659 H       1  UNL1        0.2514
     16 O         -12.5770  -15.9835   19.7044 O.2     1  UNL1        0.0415
     17 N         -12.2562  -16.9624   20.7947 N.pl3   1  UNL1        0.0811
     18 O         -13.3450  -17.8048   21.3904 O.co2   1  UNL1       -0.5760
     19 N          -4.3172  -18.7124   22.7076 N.pl3   1  UNL1       -0.2024
     20 H          -4.1385  -19.1536   23.5693 H       1  UNL1        0.2513
     21 C          -3.1800  -18.1764   21.8893 C.ar    1  UNL1        0.1191
     22 C          -2.6306  -16.8098   22.1730 C.ar    1  UNL1        0.0321
     23 C          -1.4934  -16.2739   21.3546 C.ar    1  UNL1        0.0028
     24 C          -0.9057  -17.1046   20.2526 C.ar    1  UNL1        0.0010
     25 C          -1.4551  -18.4713   19.9689 C.ar    1  UNL1        0.0141
     26 C          -2.5923  -19.0071   20.7872 C.ar    1  UNL1        0.0862
     27 CL         -3.1417  -20.3738   20.5035 Cl      1  UNL1       -0.0795
@<TRIPOS>UNITY_ATOM_ATTR
17 1
charge 1
18 1
charge -1
@<TRIPOS>BOND
     1    16    17    2
     2    17    18    1
     3    17     1    1
     4     1     2   ar
     5     2     3   ar
     6     3     4    1
     7     3     5   ar
     8     5     6   ar
     9     6     7   ar
    10     6     8    1
    11     8     9    2
    12     8    10    2
    13     8    11    1
    14    11    12    2
    15    12    19    1
    16    19    21    1
    17    21    22   ar
    18    22    23   ar
    19    23    24   ar
    20    24    25   ar
    21    25    26   ar
    22    26    27    1
    23    12    13    1
    24     7     1   ar
    25    26    21   ar
    26    13     5    1
    27     4    14    1
    28    19    20    1
    29    13    15    1
@<TRIPOS>MOLECULE
*****
 27 29 0 0 0
SMALL
GASTEIGER

@<TRIPOS>ATOM
      1 C          -3.6722  -18.6271   21.8245 C.ar    1  UNL1        0.2947
      2 C          -4.7960  -19.4154   21.2200 C.ar    1  UNL1        0.1146
      3 C          -6.2180  -19.0600   21.5391 C.ar    1  UNL1        0.1700
      4 O          -7.3419  -19.8483   20.9345 O.3     1  UNL1       -0.5030
      5 C          -6.5160  -17.9165   22.4629 C.ar    1  UNL1        0.1633
      6 C          -5.3921  -17.1282   23.0675 C.ar    1  UNL1        0.1813
      7 C          -3.9702  -17.4836   22.7483 C.ar    1  UNL1        0.0999
      8 S          -5.6902  -15.9846   23.9913 S.O2    1  UNL1        0.1585
      9 O          -5.4676  -14.8245   24.9157 O.2     1  UNL1       -0.1323
     10 O          -4.1910  -15.9370   23.9931 O.2     1  UNL1       -0.1323
     11 N          -7.1121  -15.6293   24.3104 N.2     1  UNL1        0.0584
     12 C          -8.2360  -16.4176   23.7058 C.cat   1  UNL1        0.4012
     13 N          -7.9379  -17.5611   22.7820 N.pl3   1  UNL1       -0.1994
     14 H          -7.1557  -20.5627   20.3574 H       1  UNL1        0.2923
     15 H          -8.6756  -18.0785   22.3852 H       1  UNL1        0.2514
     16 O          -1.8028  -20.4129   21.5663 O.2     1  UNL1        0.0415
     17 N          -2.2502  -18.9825   21.5054 N.pl3   1  UNL1        0.0811
     18 O          -1.2757  -17.9074   21.1253 O.co2   1  UNL1       -0.5760
     19 N          -9.6579  -16.0622   24.0250 N.pl3   1  UNL1       -0.2024
     20 H          -9.8577  -15.4595   24.7773 H       1  UNL1        0.2513
     21 C         -10.7755  -16.6252   23.1978 C.ar    1  UNL1        0.1191
     22 C         -11.2527  -15.8889   21.9813 C.ar    1  UNL1        0.0321
     23 C         -12.3703  -16.4519   21.1541 C.ar    1  UNL1        0.0028
     24 C         -13.0105  -17.7513   21.5435 C.ar    1  UNL1        0.0010
     25 C         -12.5332  -18.4877   22.7601 C.ar    1  UNL1        0.0141
     26 C         -11.4157  -17.9246   23.5872 C.ar    1  UNL1        0.0862
     27 CL        -10.9384  -18.6610   24.8038 Cl      1  UNL1       -0.0795
@<TRIPOS>UNITY_ATOM_ATTR
17 1
charge 1
18 1
charge -1
@<TRIPOS>BOND
     1    16    17    2
     2    17    18    1
     3    17     1    1
     4     1     2   ar
     5     2     3   ar
     6     3     4    1
     7     3     5   ar
     8     5     6   ar
     9     6     7   ar
    10     6     8    1
    11     8     9    2
    12     8    10    2
    13     8    11    1
    14    11    12    2
    15    12    19    1
    16    19    21    1
    17    21    22   ar
    18    22    23   ar
    19    23    24   ar
    20    24    25   ar
    21    25    26   ar
    22    26    27    1
    23    12    13    1
    24     7     1   ar
    25    26    21   ar
    26    13     5    1
    27     4    14    1
    28    19    20    1
    29    13    15    1
@<TRIPOS>MOLECULE
*****
 27 29 0 0 0
SMALL
GASTEIGER

@<TRIPOS>ATOM
      1 C          -2.7636  -18.5934   20.8418 C.ar    1  UNL1        0.2947
      2 C          -3.2909  -19.8424   20.1998 C.ar    1  UNL1        0.1146
      3 C          -4.6955  -20.2913   20.4745 C.ar    1  UNL1        0.1700
      4 O          -5.2227  -21.5403   19.8325 O.3     1  UNL1       -0.5030
      5 C          -5.5729  -19.4913   21.3910 C.ar    1  UNL1        0.1633
      6 C          -5.0456  -18.2424   22.0330 C.ar    1  UNL1        0.1813
      7 C          -3.6410  -17.7935   21.7583 C.ar    1  UNL1        0.0999
      8 S          -5.9231  -17.4423   22.9496 S.O2    1  UNL1        0.1585
      9 O          -6.3661  -16.3553   23.8834 O.2     1  UNL1       -0.1323
     10 O          -4.6723  -16.6159   22.9993 O.2     1  UNL1       -0.1323
     11 N          -7.3277  -17.8913   23.2242 N.2     1  UNL1        0.0584
     12 C          -7.8549  -19.1403   22.5822 C.cat   1  UNL1        0.4012
     13 N          -6.9775  -19.9403   21.6657 N.pl3   1  UNL1       -0.1994
     14 H          -4.6746  -22.0401   19.2599 H       1  UNL1        0.2923
     15 H          -7.3236  -20.7600   21.2444 H       1  UNL1        0.2514
     16 O          -0.9525  -16.7308   20.8607 O.2     1  UNL1        0.0415
     17 N          -1.3590  -18.1445   20.5671 N.pl3   1  UNL1        0.0811
     18 O          -0.3608  -19.1093   19.9990 O.co2   1  UNL1       -0.5760
     19 N          -9.2596  -19.5892   22.8569 N.pl3   1  UNL1       -0.2024
     20 H          -9.4218  -20.3947   23.3992 H       1  UNL1        0.2513
     21 C         -10.4171  -18.8108   22.3052 C.ar    1  UNL1        0.1191
     22 C         -10.4185  -18.3873   20.8663 C.ar    1  UNL1        0.0321
     23 C         -11.5761  -17.6089   20.3146 C.ar    1  UNL1        0.0028
     24 C         -12.7322  -17.2541   21.2020 C.ar    1  UNL1        0.0010
     25 C         -12.7308  -17.6776   22.6410 C.ar    1  UNL1        0.0141
     26 C         -11.5733  -18.4560   23.1926 C.ar    1  UNL1        0.0862
     27 CL        -11.5719  -18.8795   24.6316 Cl      1  UNL1       -0.0795
@<TRIPOS>UNITY_ATOM_ATTR
17 1
charge 1
18 1
charge -1
@<TRIPOS>BOND
     1    16    17    2
     2    17    18    1
     3    17     1    1
     4     1     2   ar
     5     2     3   ar
     6     3     4    1
     7     3     5   ar
     8     5     6   ar
     9     6     7   ar
    10     6     8    1
    11     8     9    2
    12     8    10    2
    13     8    11    1
    14    11    12    2
    15    12    19    1
    16    19    21    1
    17    21    22   ar
    18    22    23   ar
    19    23    24   ar
    20    24    25   ar
    21    25    26   ar
    22    26    27    1
    23    12    13    1
    24     7     1   ar
    25    26    21   ar
    26    13     5    1
    27     4    14    1
    28    19    20    1
    29    13    15    1
@<TRIPOS>MOLECULE
*****
 27 29 0 0 0
SMALL
GASTEIGER

@<TRIPOS>ATOM
      1 C         -18.0112   -8.1640   18.9273 C.ar    1  UNL1        0.2947
      2 C         -16.7765   -9.0142   18.8761 C.ar    1  UNL1        0.1146
      3 C         -15.4290   -8.3938   19.0984 C.ar    1  UNL1        0.1700
      4 O         -14.1942   -9.2440   19.0472 O.3     1  UNL1       -0.5030
      5 C         -15.3162   -6.9232   19.3718 C.ar    1  UNL1        0.1633
      6 C         -16.5510   -6.0731   19.4230 C.ar    1  UNL1        0.1813
      7 C         -17.8985   -6.6935   19.2007 C.ar    1  UNL1        0.0999
      8 S         -16.4383   -4.6025   19.6965 S.O2    1  UNL1        0.1585
      9 O         -16.8422   -3.1753   19.9197 O.2     1  UNL1       -0.1323
     10 O         -17.9260   -4.7273   19.5517 O.2     1  UNL1       -0.1323
     11 N         -15.0908   -3.9821   19.9188 N.2     1  UNL1        0.0584
     12 C         -13.8560   -4.8323   19.8676 C.cat   1  UNL1        0.4012
     13 N         -13.9688   -6.3029   19.5941 N.pl3   1  UNL1       -0.1994
     14 H         -14.2646  -10.1626   18.8764 H       1  UNL1        0.2923
     15 H         -13.1584   -6.8608   19.5605 H       1  UNL1        0.2514
     16 O         -20.1797   -9.2344   19.8769 O.2     1  UNL1        0.0415
     17 N         -19.3587   -8.7844   18.7050 N.pl3   1  UNL1        0.0811
     18 O         -19.8851   -8.9549   17.3108 O.co2   1  UNL1       -0.5760
     19 N         -12.5085   -4.2119   20.0898 N.pl3   1  UNL1       -0.2024
     20 H         -12.3174   -3.7386   20.9316 H       1  UNL1        0.2513
     21 C         -11.4523   -4.3128   19.0295 C.ar    1  UNL1        0.1191
     22 C         -10.6971   -5.5952   18.8427 C.ar    1  UNL1        0.0321
     23 C          -9.6409   -5.6960   17.7823 C.ar    1  UNL1        0.0028
     24 C          -9.3399   -4.5143   16.9088 C.ar    1  UNL1        0.0010
     25 C         -10.0952   -3.2318   17.0956 C.ar    1  UNL1        0.0141
     26 C         -11.1514   -3.1311   18.1559 C.ar    1  UNL1        0.0862
     27 CL        -11.9066   -1.8486   18.3428 Cl      1  UNL1       -0.0795
@<TRIPOS>UNITY_ATOM_ATTR
17 1
charge 1
18 1
charge -1
@<TRIPOS>BOND
     1    16    17    2
     2    17    18    1
     3    17     1    1
     4     1     2   ar
     5     2     3   ar
     6     3     4    1
     7     3     5   ar
     8     5     6   ar
     9     6     7   ar
    10     6     8    1
    11     8     9    2
    12     8    10    2
    13     8    11    1
    14    11    12    2
    15    12    19    1
    16    19    21    1
    17    21    22   ar
    18    22    23   ar
    19    23    24   ar
    20    24    25   ar
    21    25    26   ar
    22    26    27    1
    23    12    13    1
    24     7     1   ar
    25    26    21   ar
    26    13     5    1
    27     4    14    1
    28    19    20    1
    29    13    15    1
@<TRIPOS>MOLECULE
*****
 27 29 0 0 0
SMALL
GASTEIGER

@<TRIPOS>ATOM
      1 C          -6.1335    5.8120   27.1235 C.ar    1  UNL1        0.2947
      2 C          -4.8756    5.0169   27.3117 C.ar    1  UNL1        0.1146
      3 C          -4.3171    4.2160   26.1730 C.ar    1  UNL1        0.1700
      4 O          -3.0592    3.4207   26.3613 O.3     1  UNL1       -0.5030
      5 C          -5.0165    4.2102   24.8460 C.ar    1  UNL1        0.1633
      6 C          -6.2743    5.0054   24.6578 C.ar    1  UNL1        0.1813
      7 C          -6.8328    5.8063   25.7965 C.ar    1  UNL1        0.0999
      8 S          -6.9738    4.9997   23.3308 S.O2    1  UNL1        0.1585
      9 O          -7.9896    5.3095   22.2716 O.2     1  UNL1       -0.1323
     10 O          -7.8850    5.9082   24.1016 O.2     1  UNL1       -0.1323
     11 N          -6.4153    4.1988   22.1921 N.2     1  UNL1        0.0584
     12 C          -5.1574    3.4036   22.3804 C.cat   1  UNL1        0.4012
     13 N          -4.4580    3.4093   23.7073 N.pl3   1  UNL1       -0.1994
     14 H          -2.6224    3.4243   27.1902 H       1  UNL1        0.2923
     15 H          -3.6325    2.8874   23.8309 H       1  UNL1        0.2514
     16 O          -8.1766    6.7555   28.4217 O.2     1  UNL1        0.0415
     17 N          -6.6919    6.6129   28.2622 N.pl3   1  UNL1        0.0811
     18 O          -5.7658    7.2713   29.2413 O.co2   1  UNL1       -0.5760
     19 N          -4.5989    2.6027   21.2417 N.pl3   1  UNL1       -0.2024
     20 H          -4.6055    1.6191   21.2818 H       1  UNL1        0.2513
     21 C          -4.0303    3.3006   20.0417 C.ar    1  UNL1        0.1191
     22 C          -2.5981    3.7462   20.0420 C.ar    1  UNL1        0.0321
     23 C          -2.0295    4.4440   18.8420 C.ar    1  UNL1        0.0028
     24 C          -2.8932    4.6963   17.6419 C.ar    1  UNL1        0.0010
     25 C          -4.3256    4.2506   17.6417 C.ar    1  UNL1        0.0141
     26 C          -4.8941    3.5528   18.8416 C.ar    1  UNL1        0.0862
     27 CL         -6.3264    3.1072   18.8414 Cl      1  UNL1       -0.0795
@<TRIPOS>UNITY_ATOM_ATTR
17 1
charge 1
18 1
charge -1
@<TRIPOS>BOND
     1    16    17    2
     2    17    18    1
     3    17     1    1
     4     1     2   ar
     5     2     3   ar
     6     3     4    1
     7     3     5   ar
     8     5     6   ar
     9     6     7   ar
    10     6     8    1
    11     8     9    2
    12     8    10    2
    13     8    11    1
    14    11    12    2
    15    12    19    1
    16    19    21    1
    17    21    22   ar
    18    22    23   ar
    19    23    24   ar
    20    24    25   ar
    21    25    26   ar
    22    26    27    1
    23    12    13    1
    24     7     1   ar
    25    26    21   ar
    26    13     5    1
    27     4    14    1
    28    19    20    1
    29    13    15    1
@<TRIPOS>MOLECULE
*****
 27 29 0 0 0
SMALL
GASTEIGER

@<TRIPOS>ATOM
      1 C         -11.0242   -6.4866   18.3224 C.ar    1  UNL1        0.2947
      2 C         -10.2753   -5.1937   18.4549 C.ar    1  UNL1        0.1146
      3 C         -10.9815   -3.9649   18.9460 C.ar    1  UNL1        0.1700
      4 O         -10.2326   -2.6719   19.0786 O.3     1  UNL1       -0.5030
      5 C         -12.4366   -4.0289   19.3046 C.ar    1  UNL1        0.1633
      6 C         -13.1854   -5.3218   19.1721 C.ar    1  UNL1        0.1813
      7 C         -12.4792   -6.5506   18.6810 C.ar    1  UNL1        0.0999
      8 S         -14.6406   -5.3858   19.5306 S.O2    1  UNL1        0.1585
      9 O         -16.0164   -5.9440   19.7444 O.2     1  UNL1       -0.1323
     10 O         -14.4122   -6.8085   19.1138 O.2     1  UNL1       -0.1323
     11 N         -15.3468   -4.1570   20.0217 N.2     1  UNL1        0.0584
     12 C         -14.5979   -2.8641   20.1543 C.cat   1  UNL1        0.4012
     13 N         -13.1428   -2.8000   19.7957 N.pl3   1  UNL1       -0.1994
     14 H          -9.3236   -2.6319   18.8546 H       1  UNL1        0.2923
     15 H         -12.6513   -1.9515   19.8827 H       1  UNL1        0.2514
     16 O          -9.1531   -8.2679   18.5980 O.2     1  UNL1        0.0415
     17 N         -10.3179   -7.7155   17.8313 N.pl3   1  UNL1        0.0811
     18 O         -10.7765   -8.3918   16.5735 O.co2   1  UNL1       -0.5760
     19 N         -15.3041   -1.6352   20.6454 N.pl3   1  UNL1       -0.2024
     20 H         -15.3377   -1.4390   21.6095 H       1  UNL1        0.2513
     21 C         -15.9591   -0.7053   19.6674 C.ar    1  UNL1        0.1191
     22 C         -15.1368    0.3127   18.9342 C.ar    1  UNL1        0.0321
     23 C         -15.7918    1.2425   17.9562 C.ar    1  UNL1        0.0028
     24 C         -17.2691    1.1544   17.7115 C.ar    1  UNL1        0.0010
     25 C         -18.0914    0.1364   18.4448 C.ar    1  UNL1        0.0141
     26 C         -17.4364   -0.7935   19.4227 C.ar    1  UNL1        0.0862
     27 CL        -18.2586   -1.8115   20.1559 Cl      1  UNL1       -0.0795
@<TRIPOS>UNITY_ATOM_ATTR
17 1
charge 1
18 1
charge -1
@<TRIPOS>BOND
     1    16    17    2
     2    17    18    1
     3    17     1    1
     4     1     2   ar
     5     2     3   ar
     6     3     4    1
     7     3     5   ar
     8     5     6   ar
     9     6     7   ar
    10     6     8    1
    11     8     9    2
    12     8    10    2
    13     8    11    1
    14    11    12    2
    15    12    19    1
    16    19    21    1
    17    21    22   ar
    18    22    23   ar
    19    23    24   ar
    20    24    25   ar
    21    25    26   ar
    22    26    27    1
    23    12    13    1
    24     7     1   ar
    25    26    21   ar
    26    13     5    1
    27     4    14    1
    28    19    20    1
    29    13    15    1
@<TRIPOS>MOLECULE
*****
 27 29 0 0 0
SMALL
GASTEIGER

@<TRIPOS>ATOM
      1 C         -11.8606   -3.4699   18.3747 C.ar    1  UNL1        0.2947
      2 C         -12.6130   -3.1359   19.6286 C.ar    1  UNL1        0.1146
      3 C         -13.6146   -4.1052   20.1830 C.ar    1  UNL1        0.1700
      4 O         -14.3670   -3.7711   21.4370 O.3     1  UNL1       -0.5030
      5 C         -13.8638   -5.4084   19.4835 C.ar    1  UNL1        0.1633
      6 C         -13.1114   -5.7425   18.2296 C.ar    1  UNL1        0.1813
      7 C         -12.1098   -4.7732   17.6752 C.ar    1  UNL1        0.0999
      8 S         -13.3606   -7.0458   17.5301 S.O2    1  UNL1        0.1585
      9 O         -13.2485   -8.1451   16.5157 O.2     1  UNL1       -0.1323
     10 O         -12.3201   -6.4583   16.6234 O.2     1  UNL1       -0.1323
     11 N         -14.3622   -8.0150   18.0845 N.2     1  UNL1        0.0584
     12 C         -15.1146   -7.6810   19.3385 C.cat   1  UNL1        0.4012
     13 N         -14.8654   -6.3777   20.0380 N.pl3   1  UNL1       -0.1994
     14 H         -14.2113   -2.9569   21.8739 H       1  UNL1        0.2923
     15 H         -15.3592   -6.1584   20.8610 H       1  UNL1        0.2514
     16 O          -9.7036   -3.0005   17.0047 O.2     1  UNL1        0.0415
     17 N         -10.8590   -2.5007   17.8203 N.pl3   1  UNL1        0.0811
     18 O         -11.0129   -1.0317   18.0814 O.co2   1  UNL1       -0.5760
     19 N         -16.1162   -8.6502   19.8929 N.pl3   1  UNL1       -0.2024
     20 H         -15.9083   -9.1599   20.7092 H       1  UNL1        0.2513
     21 C         -17.4344   -8.8430   19.2036 C.ar    1  UNL1        0.1191
     22 C         -18.4710   -7.7598   19.2510 C.ar    1  UNL1        0.0321
     23 C         -19.7893   -7.9526   18.5617 C.ar    1  UNL1        0.0028
     24 C         -20.0709   -9.2285   17.8250 C.ar    1  UNL1        0.0010
     25 C         -19.0342  -10.3116   17.7775 C.ar    1  UNL1        0.0141
     26 C         -17.7161  -10.1189   18.4668 C.ar    1  UNL1        0.0862
     27 CL        -16.6794  -11.2020   18.4194 Cl      1  UNL1       -0.0795
@<TRIPOS>UNITY_ATOM_ATTR
17 1
charge 1
18 1
charge -1
@<TRIPOS>BOND
     1    16    17    2
     2    17    18    1
     3    17     1    1
     4     1     2   ar
     5     2     3   ar
     6     3     4    1
     7     3     5   ar
     8     5     6   ar
     9     6     7   ar
    10     6     8    1
    11     8     9    2
    12     8    10    2
    13     8    11    1
    14    11    12    2
    15    12    19    1
    16    19    21    1
    17    21    22   ar
    18    22    23   ar
    19    23    24   ar
    20    24    25   ar
    21    25    26   ar
    22    26    27    1
    23    12    13    1
    24     7     1   ar
    25    26    21   ar
    26    13     5    1
    27     4    14    1
    28    19    20    1
    29    13    15    1
@<TRIPOS>MOLECULE
*****
 27 29 0 0 0
SMALL
GASTEIGER

@<TRIPOS>ATOM
      1 C           2.2763   -0.6988   20.6230 C.ar    1  UNL1        0.2947
      2 C           2.8794    0.0026   21.8038 C.ar    1  UNL1        0.1146
      3 C           4.0909   -0.5700   22.4778 C.ar    1  UNL1        0.1700
      4 O           4.6940    0.1314   23.6587 O.3     1  UNL1       -0.5030
      5 C           4.6994   -1.8439   21.9711 C.ar    1  UNL1        0.1633
      6 C           4.0963   -2.5453   20.7902 C.ar    1  UNL1        0.1813
      7 C           2.8848   -1.9727   20.1162 C.ar    1  UNL1        0.0999
      8 S           4.7047   -3.8193   20.2834 S.O2    1  UNL1        0.1585
      9 O           4.9182   -5.0418   19.4409 O.2     1  UNL1       -0.1323
     10 O           3.5674   -3.6713   19.3168 O.2     1  UNL1       -0.1323
     11 N           5.9163   -4.3919   20.9575 N.2     1  UNL1        0.0584
     12 C           6.5193   -3.6904   22.1384 C.cat   1  UNL1        0.4012
     13 N           5.9109   -2.4165   22.6451 N.pl3   1  UNL1       -0.1994
     14 H           4.3139    0.9272   23.9753 H       1  UNL1        0.2923
     15 H           6.3067   -1.9562   23.4201 H       1  UNL1        0.2514
     16 O           1.1008    0.1888   18.4828 O.2     1  UNL1        0.0415
     17 N           1.0648   -0.1262   19.9489 N.pl3   1  UNL1        0.0811
     18 O          -0.1827    0.1314   20.7409 O.co2   1  UNL1       -0.5760
     19 N           7.7309   -4.2630   22.8124 N.pl3   1  UNL1       -0.2024
     20 H           8.6306   -4.0371   22.4827 H       1  UNL1        0.2513
     21 C           7.5716   -5.1799   23.9889 C.ar    1  UNL1        0.1191
     22 C           6.8624   -4.7024   25.2213 C.ar    1  UNL1        0.0321
     23 C           6.7031   -5.6193   26.3978 C.ar    1  UNL1        0.0028
     24 C           7.2530   -7.0138   26.3417 C.ar    1  UNL1        0.0010
     25 C           7.9621   -7.4913   25.1091 C.ar    1  UNL1        0.0141
     26 C           8.1214   -6.5744   23.9328 C.ar    1  UNL1        0.0862
     27 CL          8.8306   -7.0520   22.7002 Cl      1  UNL1       -0.0795
@<TRIPOS>UNITY_ATOM_ATTR
17 1
charge 1
18 1
charge -1
@<TRIPOS>BOND
     1    16    17    2
     2    17    18    1
     3    17     1    1
     4     1     2   ar
     5     2     3   ar
     6     3     4    1
     7     3     5   ar
     8     5     6   ar
     9     6     7   ar
    10     6     8    1
    11     8     9    2
    12     8    10    2
    13     8    11    1
    14    11    12    2
    15    12    19    1
    16    19    21    1
    17    21    22   ar
    18    22    23   ar
    19    23    24   ar
    20    24    25   ar
    21    25    26   ar
    22    26    27    1
    23    12    13    1
    24     7     1   ar
    25    26    21   ar
    26    13     5    1
    27     4    14    1
    28    19    20    1
    29    13    15    1
@<TRIPOS>MOLECULE
*****
 27 29 0 0 0
SMALL
GASTEIGER

@<TRIPOS>ATOM
      1 C         -11.9727   -4.7524   18.9430 C.ar    1  UNL1        0.2947
      2 C         -11.9949   -6.2443   18.7889 C.ar    1  UNL1        0.1146
      3 C         -13.2919   -6.9902   18.8965 C.ar    1  UNL1        0.1700
      4 O         -13.3140   -8.4822   18.7424 O.3     1  UNL1       -0.5030
      5 C         -14.5666   -6.2442   19.1582 C.ar    1  UNL1        0.1633
      6 C         -14.5444   -4.7524   19.3123 C.ar    1  UNL1        0.1813
      7 C         -13.2475   -4.0065   19.2047 C.ar    1  UNL1        0.0999
      8 S         -15.8192   -4.0063   19.5741 S.O2    1  UNL1        0.1585
      9 O         -16.7566   -2.8634   19.8292 O.2     1  UNL1       -0.1323
     10 O         -14.8478   -2.8635   19.5550 O.2     1  UNL1       -0.1323
     11 N         -17.1161   -4.7522   19.6817 N.2     1  UNL1        0.0584
     12 C         -17.1383   -6.2442   19.5276 C.cat   1  UNL1        0.4012
     13 N         -15.8635   -6.9901   19.2659 N.pl3   1  UNL1       -0.1994
     14 H         -12.5177   -8.9481   18.5789 H       1  UNL1        0.2923
     15 H         -15.8781   -7.9693   19.1647 H       1  UNL1        0.2514
     16 O         -10.6276   -2.6840   18.1293 O.2     1  UNL1        0.0415
     17 N         -10.6758   -4.0065   18.8353 N.pl3   1  UNL1        0.0811
     18 O          -9.4271   -4.5832   19.4337 O.co2   1  UNL1       -0.5760
     19 N         -18.4352   -6.9901   19.6352 N.pl3   1  UNL1       -0.2024
     20 H         -19.0101   -6.8665   20.4248 H       1  UNL1        0.2513
     21 C         -18.8563   -7.9242   18.5397 C.ar    1  UNL1        0.1191
     22 C         -19.6871   -7.4162   17.3989 C.ar    1  UNL1        0.0321
     23 C         -20.1082   -8.3504   16.3033 C.ar    1  UNL1        0.0028
     24 C         -19.6984   -9.7926   16.3487 C.ar    1  UNL1        0.0010
     25 C         -18.8675  -10.3006   17.4896 C.ar    1  UNL1        0.0141
     26 C         -18.4465   -9.3665   18.5851 C.ar    1  UNL1        0.0862
     27 CL        -17.6156   -9.8745   19.7260 Cl      1  UNL1       -0.0795
@<TRIPOS>UNITY_ATOM_ATTR
17 1
charge 1
18 1
charge -1
@<TRIPOS>BOND
     1    16    17    2
     2    17    18    1
     3    17     1    1
     4     1     2   ar
     5     2     3   ar
     6     3     4    1
     7     3     5   ar
     8     5     6   ar
     9     6     7   ar
    10     6     8    1
    11     8     9    2
    12     8    10    2
    13     8    11    1
    14    11    12    2
    15    12    19    1
    16    19    21    1
    17    21    22   ar
    18    22    23   ar
    19    23    24   ar
    20    24    25   ar
    21    25    26   ar
    22    26    27    1
    23    12    13    1
    24     7     1   ar
    25    26    21   ar
    26    13     5    1
    27     4    14    1
    28    19    20    1
    29    13    15    1
