@<TRIPOS>MOLECULE
*****
 35 37 0 0 0
SMALL
GASTEIGER

@<TRIPOS>ATOM
      1 C           6.5564   -3.2941   24.5873 C.3     1  UNL1        0.0952
      2 C           6.8953   -3.7299   25.9819 C.3     1  UNL1        0.1106
      3 N           7.6454   -5.0094   26.2065 N.pl3   1  UNL1       -0.3041
      4 C           8.0565   -5.8530   25.0364 C.3     1  UNL1        0.1123
      5 C           7.7175   -5.4172   23.6417 C.3     1  UNL1        0.1150
      6 N           6.9675   -4.1378   23.4172 N.pl3   1  UNL1       -0.2764
      7 C           7.9844   -5.4451   27.6012 C.ar    1  UNL1        0.0492
      8 C           8.4426   -6.8503   27.8575 C.ar    1  UNL1        0.0144
      9 C           8.7816   -7.2860   29.2521 C.ar    1  UNL1        0.0007
     10 C           8.6623   -6.3167   30.3907 C.ar    1  UNL1        0.0241
     11 C           8.2041   -4.9116   30.1345 C.ar    1  UNL1        0.1053
     12 C           7.8651   -4.4758   28.7397 C.ar    1  UNL1        0.0326
     13 S           8.0848   -3.9423   31.2729 S.O2    1  UNL1        0.0103
     14 C           7.9655   -2.9729   32.4114 C.3     1  UNL1        0.1816
     15 O           6.7345   -4.5026   31.6085 O.2     1  UNL1       -0.1686
     16 O           9.4351   -3.3819   30.9373 O.2     1  UNL1       -0.1686
     17 C           9.0013   -6.7525   31.7853 C.3     1  UNL1        0.1649
     18 O           7.9181   -7.2329   32.7051 O.3     1  UNL1       -0.3772
     19 H           7.3158   -6.4997   32.9061 H       1  UNL1        0.2109
     20 C           6.6285   -3.7020   22.0224 C.ar    1  UNL1        0.2201
     21 N           7.5617   -2.7994   21.2710 N.ar    1  UNL1       -0.2124
     22 C           7.2227   -2.3637   19.8763 C.ar    1  UNL1        0.1014
     23 C           5.9506   -2.8305   19.2330 C.ar    1  UNL1        0.0479
     24 C           5.0175   -3.7330   19.9843 C.ar    1  UNL1        0.1553
     25 N           5.3564   -4.1688   21.3791 N.ar    1  UNL1       -0.2099
     26 C           3.7454   -4.1998   19.3410 C.3     1  UNL1        0.4348
     27 F           2.4733   -4.6666   18.6977 F       1  UNL1       -0.1644
     28 F           4.4564   -5.4107   18.8136 F       1  UNL1       -0.1644
     29 F           3.0343   -2.9890   19.8684 F       1  UNL1       -0.1644
     30 C           5.6117   -2.3947   17.8383 C.3     1  UNL1        0.1666
     31 O           6.4883   -1.4067   17.1273 O.3     1  UNL1       -0.3771
     32 H           6.4436   -0.5501   17.5804 H       1  UNL1        0.2109
     33 C           4.3111   -2.0326   24.2451 C.3     1  UNL1        0.0018
     34 C           5.8063   -2.0147   24.3627 C.3     1  UNL1        0.0199
     35 C           6.5515   -0.7173   24.2558 C.3     1  UNL1        0.0018
@<TRIPOS>BOND
     1    33    34    1
     2    34    35    1
     3     1    34    1
     4     1     2    1
     5     2     3    1
     6     3     7    1
     7     7     8   ar
     8     8     9   ar
     9     9    10   ar
    10    10    17    1
    11    17    18    1
    12    10    11   ar
    13    11    13    1
    14    13    14    1
    15    13    15    2
    16    13    16    2
    17    11    12   ar
    18     3     4    1
    19     4     5    1
    20     5     6    1
    21     6    20    1
    22    20    21   ar
    23    21    22   ar
    24    22    23   ar
    25    23    30    1
    26    30    31    1
    27    23    24   ar
    28    24    26    1
    29    26    27    1
    30    26    28    1
    31    26    29    1
    32    24    25   ar
    33     6     1    1
    34    25    20   ar
    35    12     7   ar
    36    18    19    1
    37    31    32    1
@<TRIPOS>MOLECULE
*****
 35 37 0 0 0
SMALL
GASTEIGER

@<TRIPOS>ATOM
      1 C           7.2163   -1.2721   33.2788 C.3     1  UNL1        0.0952
      2 C           6.9691   -0.3687   34.4505 C.3     1  UNL1        0.1106
      3 N           5.6075   -0.3083   35.0768 N.pl3   1  UNL1       -0.3041
      4 C           4.4930   -1.1512   34.5315 C.3     1  UNL1        0.1123
      5 C           4.7402   -2.0545   33.3598 C.3     1  UNL1        0.1150
      6 N           6.1018   -2.1149   32.7335 N.pl3   1  UNL1       -0.2764
      7 C           5.3604    0.5951   36.2486 C.ar    1  UNL1        0.0492
      8 C           6.4689    1.4551   36.7794 C.ar    1  UNL1        0.0144
      9 C           6.2218    2.3584   37.9511 C.ar    1  UNL1        0.0007
     10 C           4.8663    2.4019   38.5920 C.ar    1  UNL1        0.0241
     11 C           3.7578    1.5419   38.0611 C.ar    1  UNL1        0.1053
     12 C           4.0049    0.6385   36.8894 C.ar    1  UNL1        0.0326
     13 S           2.4023    1.5853   38.7019 S.O2    1  UNL1        0.0103
     14 C           1.0468    1.6287   39.3428 C.3     1  UNL1        0.1816
     15 O           2.8635    0.6094   39.7435 O.2     1  UNL1       -0.1686
     16 O           1.9412    2.5612   37.6604 O.2     1  UNL1       -0.1686
     17 C           4.6192    3.3052   39.7636 C.3     1  UNL1        0.1649
     18 O           5.3988    3.1192   41.0316 O.3     1  UNL1       -0.3772
     19 H           5.1663    2.2668   41.4320 H       1  UNL1        0.2109
     20 C           6.3489   -3.0183   31.5617 C.ar    1  UNL1        0.2201
     21 N           6.6213   -4.4767   31.7834 N.ar    1  UNL1       -0.2124
     22 C           6.8684   -5.3800   30.6118 C.ar    1  UNL1        0.1014
     23 C           6.8431   -4.8251   29.2184 C.ar    1  UNL1        0.0479
     24 C           6.5708   -3.3668   28.9967 C.ar    1  UNL1        0.1553
     25 N           6.3237   -2.4634   30.1684 N.ar    1  UNL1       -0.2099
     26 C           6.5455   -2.8119   27.6034 C.3     1  UNL1        0.4348
     27 F           6.5202   -2.2569   26.2101 F       1  UNL1       -0.1644
     28 F           5.0469   -2.8766   27.6048 F       1  UNL1       -0.1644
     29 F           8.0441   -2.7472   27.6020 F       1  UNL1       -0.1644
     30 C           7.0902   -5.7285   28.0467 C.3     1  UNL1        0.1666
     31 O           5.9406   -6.1941   27.2031 O.3     1  UNL1       -0.3771
     32 H           5.3634   -6.7675   27.7313 H       1  UNL1        0.2109
     33 C           9.5346   -2.4204   33.0410 C.3     1  UNL1        0.0018
     34 C           8.5779   -1.3325   32.6524 C.3     1  UNL1        0.0199
     35 C           8.9828   -0.3050   31.6375 C.3     1  UNL1        0.0018
@<TRIPOS>BOND
     1    33    34    1
     2    34    35    1
     3     1    34    1
     4     1     2    1
     5     2     3    1
     6     3     7    1
     7     7     8   ar
     8     8     9   ar
     9     9    10   ar
    10    10    17    1
    11    17    18    1
    12    10    11   ar
    13    11    13    1
    14    13    14    1
    15    13    15    2
    16    13    16    2
    17    11    12   ar
    18     3     4    1
    19     4     5    1
    20     5     6    1
    21     6    20    1
    22    20    21   ar
    23    21    22   ar
    24    22    23   ar
    25    23    30    1
    26    30    31    1
    27    23    24   ar
    28    24    26    1
    29    26    27    1
    30    26    28    1
    31    26    29    1
    32    24    25   ar
    33     6     1    1
    34    25    20   ar
    35    12     7   ar
    36    18    19    1
    37    31    32    1
@<TRIPOS>MOLECULE
*****
 35 37 0 0 0
SMALL
GASTEIGER

@<TRIPOS>ATOM
      1 C           4.9925   -1.2912   24.7414 C.3     1  UNL1        0.0952
      2 C           4.9328   -1.2150   26.2382 C.3     1  UNL1        0.1106
      3 N           5.6519   -2.2350   27.0704 N.pl3   1  UNL1       -0.3041
      4 C           6.4307   -3.3312   26.4057 C.3     1  UNL1        0.1123
      5 C           6.4904   -3.4073   24.9088 C.3     1  UNL1        0.1150
      6 N           5.7713   -2.3873   24.0767 N.pl3   1  UNL1       -0.2764
      7 C           5.5922   -2.1588   28.5673 C.ar    1  UNL1        0.0492
      8 C           6.4293   -3.0846   29.3994 C.ar    1  UNL1        0.0144
      9 C           6.3696   -3.0084   30.8962 C.ar    1  UNL1        0.0007
     10 C           5.4727   -2.0065   31.5611 C.ar    1  UNL1        0.0241
     11 C           4.6356   -1.0808   30.7290 C.ar    1  UNL1        0.1053
     12 C           4.6954   -1.1570   29.2321 C.ar    1  UNL1        0.0326
     13 S           3.7388   -0.0789   31.3938 S.O2    1  UNL1        0.0103
     14 C           2.8421    0.9229   32.0586 C.3     1  UNL1        0.1816
     15 O           2.6338   -1.0925   31.4305 O.2     1  UNL1       -0.1686
     16 O           4.8439    0.9346   31.3570 O.2     1  UNL1       -0.1686
     17 C           5.4130   -1.9304   33.0579 C.3     1  UNL1        0.1649
     18 O           4.1895   -2.4042   33.7848 O.3     1  UNL1       -0.3772
     19 H           3.4393   -1.8307   33.5631 H       1  UNL1        0.2109
     20 C           5.8310   -2.4635   22.5798 C.ar    1  UNL1        0.2201
     21 N           6.9779   -1.8384   21.8422 N.ar    1  UNL1       -0.2124
     22 C           7.0376   -1.9146   20.3453 C.ar    1  UNL1        0.1014
     23 C           5.9505   -2.6159   19.5860 C.ar    1  UNL1        0.0479
     24 C           4.8037   -3.2410   20.3236 C.ar    1  UNL1        0.1553
     25 N           4.7440   -3.1648   21.8205 N.ar    1  UNL1       -0.2099
     26 C           3.7167   -3.9422   19.5643 C.3     1  UNL1        0.4348
     27 F           2.6296   -4.6435   18.8051 F       1  UNL1       -0.1644
     28 F           2.8744   -2.7026   19.6253 F       1  UNL1       -0.1644
     29 F           4.5589   -5.1819   19.5034 F       1  UNL1       -0.1644
     30 C           6.0103   -2.6920   18.0892 C.3     1  UNL1        0.1666
     31 O           6.7637   -1.6515   17.3147 O.3     1  UNL1       -0.3771
     32 H           6.3251   -0.7923   17.4161 H       1  UNL1        0.2109
     33 C           2.8474   -0.5029   23.5055 C.3     1  UNL1        0.0018
     34 C           4.2733   -0.2712   23.9092 C.3     1  UNL1        0.0199
     35 C           4.9801    0.9805   23.4808 C.3     1  UNL1        0.0018
@<TRIPOS>BOND
     1    33    34    1
     2    34    35    1
     3     1    34    1
     4     1     2    1
     5     2     3    1
     6     3     7    1
     7     7     8   ar
     8     8     9   ar
     9     9    10   ar
    10    10    17    1
    11    17    18    1
    12    10    11   ar
    13    11    13    1
    14    13    14    1
    15    13    15    2
    16    13    16    2
    17    11    12   ar
    18     3     4    1
    19     4     5    1
    20     5     6    1
    21     6    20    1
    22    20    21   ar
    23    21    22   ar
    24    22    23   ar
    25    23    30    1
    26    30    31    1
    27    23    24   ar
    28    24    26    1
    29    26    27    1
    30    26    28    1
    31    26    29    1
    32    24    25   ar
    33     6     1    1
    34    25    20   ar
    35    12     7   ar
    36    18    19    1
    37    31    32    1
@<TRIPOS>MOLECULE
*****
 35 37 0 0 0
SMALL
GASTEIGER

@<TRIPOS>ATOM
      1 C           1.8189    1.1921   22.0725 C.3     1  UNL1        0.0952
      2 C           0.7825    2.0853   22.6873 C.3     1  UNL1        0.1106
      3 N          -0.3969    2.5344   21.8765 N.pl3   1  UNL1       -0.3041
      4 C          -0.5399    2.0903   20.4510 C.3     1  UNL1        0.1123
      5 C           0.4965    1.1970   19.8362 C.3     1  UNL1        0.1150
      6 N           1.6759    0.7479   20.6470 N.pl3   1  UNL1       -0.2764
      7 C          -1.4333    3.4277   22.4914 C.ar    1  UNL1        0.0492
      8 C          -1.1072    4.2164   23.7249 C.ar    1  UNL1        0.0144
      9 C          -2.1435    5.1097   24.3398 C.ar    1  UNL1        0.0007
     10 C          -3.5060    5.2142   23.7211 C.ar    1  UNL1        0.0241
     11 C          -3.8321    4.4255   22.4876 C.ar    1  UNL1        0.1053
     12 C          -2.7957    3.5322   21.8727 C.ar    1  UNL1        0.0326
     13 S          -5.1946    4.5301   21.8690 S.O2    1  UNL1        0.0103
     14 C          -6.5570    4.6346   21.2503 C.3     1  UNL1        0.1816
     15 O          -5.7051    3.4856   22.8167 O.2     1  UNL1       -0.1686
     16 O          -4.6841    5.5746   20.9212 O.2     1  UNL1       -0.1686
     17 C          -4.5423    6.1075   24.3360 C.3     1  UNL1        0.1649
     18 O          -5.6205    5.5220   25.1990 O.3     1  UNL1       -0.3772
     19 H          -6.1940    4.9552   24.6599 H       1  UNL1        0.2109
     20 C           2.7123   -0.1454   20.0321 C.ar    1  UNL1        0.2201
     21 N           3.8009    0.4422   19.1838 N.ar    1  UNL1       -0.2124
     22 C           4.8373   -0.4510   18.5689 C.ar    1  UNL1        0.1014
     23 C           4.7850   -1.9318   18.8024 C.ar    1  UNL1        0.0479
     24 C           3.6964   -2.5194   19.6507 C.ar    1  UNL1        0.1553
     25 N           2.6600   -1.6261   20.2655 N.ar    1  UNL1       -0.2099
     26 C           3.6441   -4.0002   19.8841 C.3     1  UNL1        0.4348
     27 F           3.5918   -5.4809   20.1176 F       1  UNL1       -0.1644
     28 F           2.8381   -4.1694   18.6305 F       1  UNL1       -0.1644
     29 F           4.4501   -3.8310   21.1378 F       1  UNL1       -0.1644
     30 C           5.8214   -2.8250   18.1875 C.3     1  UNL1        0.1666
     31 O           6.9286   -2.2343   17.3659 O.3     1  UNL1       -0.3771
     32 H           6.5584   -1.8378   16.5618 H       1  UNL1        0.2109
     33 C           2.9011   -0.4929   23.7277 C.3     1  UNL1        0.0018
     34 C           2.9983    0.7430   22.8833 C.3     1  UNL1        0.0199
     35 C           4.2749    1.5298   22.8496 C.3     1  UNL1        0.0018
@<TRIPOS>BOND
     1    33    34    1
     2    34    35    1
     3     1    34    1
     4     1     2    1
     5     2     3    1
     6     3     7    1
     7     7     8   ar
     8     8     9   ar
     9     9    10   ar
    10    10    17    1
    11    17    18    1
    12    10    11   ar
    13    11    13    1
    14    13    14    1
    15    13    15    2
    16    13    16    2
    17    11    12   ar
    18     3     4    1
    19     4     5    1
    20     5     6    1
    21     6    20    1
    22    20    21   ar
    23    21    22   ar
    24    22    23   ar
    25    23    30    1
    26    30    31    1
    27    23    24   ar
    28    24    26    1
    29    26    27    1
    30    26    28    1
    31    26    29    1
    32    24    25   ar
    33     6     1    1
    34    25    20   ar
    35    12     7   ar
    36    18    19    1
    37    31    32    1
@<TRIPOS>MOLECULE
*****
 35 37 0 0 0
SMALL
GASTEIGER

@<TRIPOS>ATOM
      1 C           5.8900   -2.0977   24.7367 C.3     1  UNL1        0.0952
      2 C           5.7848   -2.0269   26.2313 C.3     1  UNL1        0.1106
      3 N           4.6081   -1.3498   26.8691 N.pl3   1  UNL1       -0.3041
      4 C           3.5365   -0.7435   26.0124 C.3     1  UNL1        0.1123
      5 C           3.6416   -0.8143   24.5178 C.3     1  UNL1        0.1150
      6 N           4.8184   -1.4914   23.8799 N.pl3   1  UNL1       -0.2764
      7 C           4.5029   -1.2790   28.3638 C.ar    1  UNL1        0.0492
      8 C           3.2406   -0.7827   29.0042 C.ar    1  UNL1        0.0144
      9 C           3.1354   -0.7119   30.4988 C.ar    1  UNL1        0.0007
     10 C           4.2927   -1.1375   31.3531 C.ar    1  UNL1        0.0241
     11 C           5.5550   -1.6339   30.7127 C.ar    1  UNL1        0.1053
     12 C           5.6601   -1.7047   29.2180 C.ar    1  UNL1        0.0326
     13 S           6.7122   -2.0595   31.5669 S.O2    1  UNL1        0.0103
     14 C           7.8694   -2.4851   32.4211 C.3     1  UNL1        0.1816
     15 O           6.1116   -3.4277   31.6988 O.2     1  UNL1       -0.1686
     16 O           7.3128   -0.6914   31.4350 O.2     1  UNL1       -0.1686
     17 C           4.1875   -1.0668   32.8477 C.3     1  UNL1        0.1649
     18 O           3.9111   -2.3102   33.6398 O.3     1  UNL1       -0.3772
     19 H           3.0221   -2.6364   33.4298 H       1  UNL1        0.2109
     20 C           4.9235   -1.5621   22.3852 C.ar    1  UNL1        0.2201
     21 N           5.3587   -0.3565   21.6061 N.ar    1  UNL1       -0.2124
     22 C           5.4639   -0.4272   20.1115 C.ar    1  UNL1        0.1014
     23 C           5.1337   -1.7036   19.3959 C.ar    1  UNL1        0.0479
     24 C           4.6985   -2.9092   20.1750 C.ar    1  UNL1        0.1553
     25 N           4.5934   -2.8384   21.6697 N.ar    1  UNL1       -0.2099
     26 C           4.3684   -4.1855   19.4596 C.3     1  UNL1        0.4348
     27 F           4.0383   -5.4618   18.7441 F       1  UNL1       -0.1644
     28 F           5.7844   -4.6489   19.6328 F       1  UNL1       -0.1644
     29 F           2.9523   -3.7222   19.2863 F       1  UNL1       -0.1644
     30 C           5.2389   -1.7743   17.9013 C.3     1  UNL1        0.1666
     31 O           4.0043   -1.6641   17.0565 O.3     1  UNL1       -0.3771
     32 H           3.4340   -2.4325   17.2157 H       1  UNL1        0.2109
     33 C           7.0579   -4.2610   23.8965 C.3     1  UNL1        0.0018
     34 C           7.0667   -2.7747   24.0988 C.3     1  UNL1        0.0199
     35 C           8.2522   -1.9656   23.6633 C.3     1  UNL1        0.0018
@<TRIPOS>BOND
     1    33    34    1
     2    34    35    1
     3     1    34    1
     4     1     2    1
     5     2     3    1
     6     3     7    1
     7     7     8   ar
     8     8     9   ar
     9     9    10   ar
    10    10    17    1
    11    17    18    1
    12    10    11   ar
    13    11    13    1
    14    13    14    1
    15    13    15    2
    16    13    16    2
    17    11    12   ar
    18     3     4    1
    19     4     5    1
    20     5     6    1
    21     6    20    1
    22    20    21   ar
    23    21    22   ar
    24    22    23   ar
    25    23    30    1
    26    30    31    1
    27    23    24   ar
    28    24    26    1
    29    26    27    1
    30    26    28    1
    31    26    29    1
    32    24    25   ar
    33     6     1    1
    34    25    20   ar
    35    12     7   ar
    36    18    19    1
    37    31    32    1
@<TRIPOS>MOLECULE
*****
 35 37 0 0 0
SMALL
GASTEIGER

@<TRIPOS>ATOM
      1 C           0.3759    2.5303   21.2259 C.3     1  UNL1        0.0952
      2 C          -0.9631    2.8773   21.8061 C.3     1  UNL1        0.1106
      3 N          -2.0604    3.3769   20.9138 N.pl3   1  UNL1       -0.3041
      4 C          -1.8188    3.5294   19.4413 C.3     1  UNL1        0.1123
      5 C          -0.4798    3.1824   18.8611 C.3     1  UNL1        0.1150
      6 N           0.6175    2.6828   19.7534 N.pl3   1  UNL1       -0.2764
      7 C          -3.3995    3.7239   21.4941 C.ar    1  UNL1        0.0492
      8 C          -4.6126    3.7589   20.6125 C.ar    1  UNL1        0.0144
      9 C          -5.9515    4.1060   21.1927 C.ar    1  UNL1        0.0007
     10 C          -6.0775    4.4180   22.6546 C.ar    1  UNL1        0.0241
     11 C          -4.8644    4.3830   23.5361 C.ar    1  UNL1        0.1053
     12 C          -3.5253    4.0359   22.9558 C.ar    1  UNL1        0.0326
     13 S          -4.9902    4.6950   24.9979 S.O2    1  UNL1        0.0103
     14 C          -5.1161    5.0070   26.4596 C.3     1  UNL1        0.1816
     15 O          -4.7605    6.1485   24.7074 O.2     1  UNL1       -0.1686
     16 O          -5.2200    3.2414   25.2883 O.2     1  UNL1       -0.1686
     17 C          -7.4164    4.7650   23.2347 C.3     1  UNL1        0.1649
     18 O          -8.4734    3.7088   23.3661 O.3     1  UNL1       -0.3772
     19 H          -8.7498    3.4165   22.4835 H       1  UNL1        0.2109
     20 C           1.9566    2.3358   19.1732 C.ar    1  UNL1        0.2201
     21 N           2.9623    3.4168   18.9087 N.ar    1  UNL1       -0.2124
     22 C           4.3012    3.0698   18.3285 C.ar    1  UNL1        0.1014
     23 C           4.6346    1.6418   18.0126 C.ar    1  UNL1        0.0479
     24 C           3.6288    0.5608   18.2771 C.ar    1  UNL1        0.1553
     25 N           2.2898    0.9078   18.8574 N.ar    1  UNL1       -0.2099
     26 C           3.9621   -0.8672   17.9613 C.3     1  UNL1        0.4348
     27 F           4.2953   -2.2952   17.6455 F       1  UNL1       -0.1644
     28 F           3.4921   -0.6651   16.5513 F       1  UNL1       -0.1644
     29 F           4.4321   -1.0694   19.3713 F       1  UNL1       -0.1644
     30 C           5.9735    1.2948   17.4324 C.3     1  UNL1        0.1666
     31 O           7.1289    0.9931   18.3402 O.3     1  UNL1       -0.3771
     32 H           7.3686    1.7922   18.8350 H       1  UNL1        0.2109
     33 C           1.6037    0.5626   22.3967 C.3     1  UNL1        0.0018
     34 C           1.4733    2.0307   22.1182 C.3     1  UNL1        0.0199
     35 C           2.4403    2.9992   22.7321 C.3     1  UNL1        0.0018
@<TRIPOS>BOND
     1    33    34    1
     2    34    35    1
     3     1    34    1
     4     1     2    1
     5     2     3    1
     6     3     7    1
     7     7     8   ar
     8     8     9   ar
     9     9    10   ar
    10    10    17    1
    11    17    18    1
    12    10    11   ar
    13    11    13    1
    14    13    14    1
    15    13    15    2
    16    13    16    2
    17    11    12   ar
    18     3     4    1
    19     4     5    1
    20     5     6    1
    21     6    20    1
    22    20    21   ar
    23    21    22   ar
    24    22    23   ar
    25    23    30    1
    26    30    31    1
    27    23    24   ar
    28    24    26    1
    29    26    27    1
    30    26    28    1
    31    26    29    1
    32    24    25   ar
    33     6     1    1
    34    25    20   ar
    35    12     7   ar
    36    18    19    1
    37    31    32    1
@<TRIPOS>MOLECULE
*****
 35 37 0 0 0
SMALL
GASTEIGER

@<TRIPOS>ATOM
      1 C           1.5167    1.3438   21.4795 C.3     1  UNL1        0.0952
      2 C           0.4395    2.0172   22.2771 C.3     1  UNL1        0.1106
      3 N           0.3501    1.7916   23.7573 N.pl3   1  UNL1       -0.3041
      4 C           1.3379    0.8927   24.4400 C.3     1  UNL1        0.1123
      5 C           2.4151    0.2193   23.6424 C.3     1  UNL1        0.1150
      6 N           2.5045    0.4449   22.1621 N.pl3   1  UNL1       -0.2764
      7 C          -0.7272    2.4650   24.5549 C.ar    1  UNL1        0.0492
      8 C          -0.7309    2.3576   26.0510 C.ar    1  UNL1        0.0144
      9 C          -1.8081    3.0309   26.8486 C.ar    1  UNL1        0.0007
     10 C          -2.8816    3.8117   26.1501 C.ar    1  UNL1        0.0241
     11 C          -2.8779    3.9192   24.6539 C.ar    1  UNL1        0.1053
     12 C          -1.8006    3.2457   23.8563 C.ar    1  UNL1        0.0326
     13 S          -3.9514    4.6999   23.9554 S.O2    1  UNL1        0.0103
     14 C          -5.0249    5.4807   23.2568 C.3     1  UNL1        0.1816
     15 O          -3.1801    5.9657   24.1850 O.2     1  UNL1       -0.1686
     16 O          -4.7226    3.4341   23.7258 O.2     1  UNL1       -0.1686
     17 C          -3.9588    4.4851   26.9477 C.3     1  UNL1        0.1649
     18 O          -3.8545    5.9476   27.2644 O.3     1  UNL1       -0.3772
     19 H          -3.0986    6.0977   27.8534 H       1  UNL1        0.2109
     20 C           3.5818   -0.2285   21.3645 C.ar    1  UNL1        0.2201
     21 N           4.8777    0.4810   21.1053 N.ar    1  UNL1       -0.2124
     22 C           5.9549   -0.1923   20.3077 C.ar    1  UNL1        0.1014
     23 C           5.7363   -1.5752   19.7694 C.ar    1  UNL1        0.0479
     24 C           4.4404   -2.2848   20.0287 C.ar    1  UNL1        0.1553
     25 N           3.3632   -1.6114   20.8262 N.ar    1  UNL1       -0.2099
     26 C           4.2218   -3.6677   19.4904 C.3     1  UNL1        0.4348
     27 F           4.0032   -5.0505   18.9521 F       1  UNL1       -0.1644
     28 F           4.7622   -4.2486   20.7633 F       1  UNL1       -0.1644
     29 F           3.6813   -3.0867   18.2174 F       1  UNL1       -0.1644
     30 C           6.8136   -2.2486   18.9719 C.3     1  UNL1        0.1666
     31 O           6.7828   -2.1934   17.4732 O.3     1  UNL1       -0.3771
     32 H           6.0105   -2.6816   17.1474 H       1  UNL1        0.2109
     33 C           0.9569    0.6036   19.0528 C.3     1  UNL1        0.0018
     34 C           1.6061    1.5694   19.9992 C.3     1  UNL1        0.0199
     35 C           2.3446    2.7608   19.4654 C.3     1  UNL1        0.0018
@<TRIPOS>BOND
     1    33    34    1
     2    34    35    1
     3     1    34    1
     4     1     2    1
     5     2     3    1
     6     3     7    1
     7     7     8   ar
     8     8     9   ar
     9     9    10   ar
    10    10    17    1
    11    17    18    1
    12    10    11   ar
    13    11    13    1
    14    13    14    1
    15    13    15    2
    16    13    16    2
    17    11    12   ar
    18     3     4    1
    19     4     5    1
    20     5     6    1
    21     6    20    1
    22    20    21   ar
    23    21    22   ar
    24    22    23   ar
    25    23    30    1
    26    30    31    1
    27    23    24   ar
    28    24    26    1
    29    26    27    1
    30    26    28    1
    31    26    29    1
    32    24    25   ar
    33     6     1    1
    34    25    20   ar
    35    12     7   ar
    36    18    19    1
    37    31    32    1
@<TRIPOS>MOLECULE
*****
 35 37 0 0 0
SMALL
GASTEIGER

@<TRIPOS>ATOM
      1 C           2.0269    0.7691   23.2478 C.3     1  UNL1        0.0952
      2 C           1.5736    1.1360   24.6298 C.3     1  UNL1        0.1106
      3 N           2.2819    0.5721   25.8258 N.pl3   1  UNL1       -0.3041
      4 C           3.4434   -0.3586   25.6398 C.3     1  UNL1        0.1123
      5 C           3.8967   -0.7254   24.2578 C.3     1  UNL1        0.1150
      6 N           3.1884   -0.1615   23.0618 N.pl3   1  UNL1       -0.2764
      7 C           1.8285    0.9389   27.2078 C.ar    1  UNL1        0.0492
      8 C           0.5997    1.7784   27.3959 C.ar    1  UNL1        0.0144
      9 C           0.1464    2.1453   28.7779 C.ar    1  UNL1        0.0007
     10 C           0.9218    1.6727   29.9718 C.ar    1  UNL1        0.0241
     11 C           2.1506    0.8332   29.7837 C.ar    1  UNL1        0.1053
     12 C           2.6039    0.4663   28.4017 C.ar    1  UNL1        0.0326
     13 S           2.9260    0.3606   30.9776 S.O2    1  UNL1        0.0103
     14 C           3.7014   -0.1120   32.1714 C.3     1  UNL1        0.1816
     15 O           3.6368    1.6800   31.0382 O.2     1  UNL1       -0.1686
     16 O           2.2152   -0.9589   30.9169 O.2     1  UNL1       -0.1686
     17 C           0.4684    2.0395   31.3538 C.3     1  UNL1        0.1649
     18 O           1.0265    3.2580   32.0274 O.3     1  UNL1       -0.3772
     19 H           1.9731    3.1293   32.1960 H       1  UNL1        0.2109
     20 C           3.6418   -0.5284   21.6798 C.ar    1  UNL1        0.2201
     21 N           4.1062    0.5397   20.7346 N.ar    1  UNL1       -0.2124
     22 C           4.5596    0.1729   19.3526 C.ar    1  UNL1        0.1014
     23 C           4.5485   -1.2621   18.9157 C.ar    1  UNL1        0.0479
     24 C           4.0840   -2.3302   19.8609 C.ar    1  UNL1        0.1553
     25 N           3.6307   -1.9633   21.2430 N.ar    1  UNL1       -0.2099
     26 C           4.0729   -3.7651   19.4242 C.3     1  UNL1        0.4348
     27 F           4.0618   -5.2000   18.9874 F       1  UNL1       -0.1644
     28 F           5.4923   -3.9164   19.8850 F       1  UNL1       -0.1644
     29 F           2.6535   -3.6138   18.9633 F       1  UNL1       -0.1644
     30 C           5.0018   -1.6289   17.5338 C.3     1  UNL1        0.1666
     31 O           4.0269   -1.6067   16.3940 O.3     1  UNL1       -0.3771
     32 H           3.3536   -2.2915   16.5311 H       1  UNL1        0.2109
     33 C           1.4398    2.7925   21.7275 C.3     1  UNL1        0.0018
     34 C           1.3187    1.3330   22.0518 C.3     1  UNL1        0.0199
     35 C           0.4893    0.4374   21.1800 C.3     1  UNL1        0.0018
@<TRIPOS>BOND
     1    33    34    1
     2    34    35    1
     3     1    34    1
     4     1     2    1
     5     2     3    1
     6     3     7    1
     7     7     8   ar
     8     8     9   ar
     9     9    10   ar
    10    10    17    1
    11    17    18    1
    12    10    11   ar
    13    11    13    1
    14    13    14    1
    15    13    15    2
    16    13    16    2
    17    11    12   ar
    18     3     4    1
    19     4     5    1
    20     5     6    1
    21     6    20    1
    22    20    21   ar
    23    21    22   ar
    24    22    23   ar
    25    23    30    1
    26    30    31    1
    27    23    24   ar
    28    24    26    1
    29    26    27    1
    30    26    28    1
    31    26    29    1
    32    24    25   ar
    33     6     1    1
    34    25    20   ar
    35    12     7   ar
    36    18    19    1
    37    31    32    1
@<TRIPOS>MOLECULE
*****
 35 37 0 0 0
SMALL
GASTEIGER

@<TRIPOS>ATOM
      1 C           0.8455    2.2773   20.8416 C.3     1  UNL1        0.0952
      2 C          -0.5288    2.6559   21.3086 C.3     1  UNL1        0.1106
      3 N          -1.5310    3.1948   20.3314 N.pl3   1  UNL1       -0.3041
      4 C          -1.1591    3.3551   18.8871 C.3     1  UNL1        0.1123
      5 C           0.2152    2.9766   18.4201 C.3     1  UNL1        0.1150
      6 N           1.2174    2.4377   19.3974 N.pl3   1  UNL1       -0.2764
      7 C          -2.9053    3.5734   20.7984 C.ar    1  UNL1        0.0492
      8 C          -3.2471    3.5046   22.2574 C.ar    1  UNL1        0.0144
      9 C          -4.6213    3.8832   22.7244 C.ar    1  UNL1        0.0007
     10 C          -5.6538    4.3305   21.7326 C.ar    1  UNL1        0.0241
     11 C          -5.3121    4.3993   20.2736 C.ar    1  UNL1        0.1053
     12 C          -3.9378    4.0207   19.8066 C.ar    1  UNL1        0.0326
     13 S          -6.3446    4.8467   19.2818 S.O2    1  UNL1        0.0103
     14 C          -7.3771    5.2940   18.2899 C.3     1  UNL1        0.1816
     15 O          -5.9198    6.2712   19.4820 O.2     1  UNL1       -0.1686
     16 O          -6.7694    3.4221   19.0815 O.2     1  UNL1       -0.1686
     17 C          -7.0280    4.7091   22.1996 C.3     1  UNL1        0.1649
     18 O          -7.8075    3.7722   23.0741 O.3     1  UNL1       -0.3772
     19 H          -8.0212    2.9676   22.5763 H       1  UNL1        0.2109
     20 C           2.5917    2.0591   18.9303 C.ar    1  UNL1        0.2201
     21 N           3.6472    3.1132   18.7730 N.ar    1  UNL1       -0.2124
     22 C           5.0214    2.7347   18.3059 C.ar    1  UNL1        0.1014
     23 C           5.3402    1.3020   17.9963 C.ar    1  UNL1        0.0479
     24 C           4.2848    0.2479   18.1536 C.ar    1  UNL1        0.1553
     25 N           2.9105    0.6264   18.6207 N.ar    1  UNL1       -0.2099
     26 C           4.6035   -1.1848   17.8440 C.3     1  UNL1        0.4348
     27 F           4.9222   -2.6174   17.5344 F       1  UNL1       -0.1644
     28 F           5.1153   -1.3729   19.2413 F       1  UNL1       -0.1644
     29 F           4.0917   -0.9966   16.4467 F       1  UNL1       -0.1644
     30 C           6.7145    0.9235   17.5292 C.3     1  UNL1        0.1666
     31 O           6.9922    0.7681   16.0634 O.3     1  UNL1       -0.3771
     32 H           6.4897    0.0141   15.7172 H       1  UNL1        0.2109
     33 C           2.7490    2.6780   22.5639 C.3     1  UNL1        0.0018
     34 C           1.8477    1.7384   21.8189 C.3     1  UNL1        0.0199
     35 C           1.9488    0.2600   22.0512 C.3     1  UNL1        0.0018
@<TRIPOS>BOND
     1    33    34    1
     2    34    35    1
     3     1    34    1
     4     1     2    1
     5     2     3    1
     6     3     7    1
     7     7     8   ar
     8     8     9   ar
     9     9    10   ar
    10    10    17    1
    11    17    18    1
    12    10    11   ar
    13    11    13    1
    14    13    14    1
    15    13    15    2
    16    13    16    2
    17    11    12   ar
    18     3     4    1
    19     4     5    1
    20     5     6    1
    21     6    20    1
    22    20    21   ar
    23    21    22   ar
    24    22    23   ar
    25    23    30    1
    26    30    31    1
    27    23    24   ar
    28    24    26    1
    29    26    27    1
    30    26    28    1
    31    26    29    1
    32    24    25   ar
    33     6     1    1
    34    25    20   ar
    35    12     7   ar
    36    18    19    1
    37    31    32    1
