@<TRIPOS>MOLECULE
*****
 31 35 0 0 0
SMALL
GASTEIGER

@<TRIPOS>ATOM
      1 C           4.6433   -0.9959   34.3918 C.3     1  UNL1        0.0521
      2 C           4.7316   -0.9172   32.8965 C.ar    1  UNL1        0.0610
      3 C           3.5068   -0.6065   32.0882 C.ar    1  UNL1        0.0354
      4 C           3.5951   -0.5278   30.5929 C.ar    1  UNL1        0.1031
      5 N           2.3702   -0.2171   29.7846 N.ar    1  UNL1       -0.2264
      6 C           2.4585   -0.1384   28.2892 C.ar    1  UNL1        0.1603
      7 C           3.7715   -0.3706   27.6022 C.ar    1  UNL1        0.1634
      8 N           4.9963   -0.6813   28.4105 N.ar    1  UNL1       -0.2247
      9 C           4.9081   -0.7600   29.9058 C.ar    1  UNL1        0.1195
     10 C           6.1328   -1.0707   30.7141 C.ar    1  UNL1        0.1190
     11 N           6.0446   -1.1494   32.2094 N.ar    1  UNL1       -0.2465
     12 N           3.8598   -0.2920   26.1069 N.pl3   1  UNL1       -0.2908
     13 C           3.9171    1.0445   25.4282 C.3     1  UNL1        0.0960
     14 C           4.0053    1.1231   23.9328 C.3     1  UNL1        0.0650
     15 C           4.0363   -0.1347   23.1162 C.3     1  UNL1        0.1694
     16 C           3.9790   -1.4712   23.7949 C.3     1  UNL1        0.0650
     17 C           3.8908   -1.5498   25.2902 C.3     1  UNL1        0.0960
     18 O           4.1245   -0.0561   21.6208 O.3     1  UNL1       -0.4768
     19 C           4.3131   -1.3063   20.8139 C.ar    1  UNL1        0.1657
     20 C           5.6762   -1.9197   20.6888 C.ar    1  UNL1        0.0415
     21 C           5.8648   -3.1701   19.8818 C.ar    1  UNL1        0.0329
     22 C           4.6903   -3.8070   19.2000 C.ar    1  UNL1        0.1426
     23 F           4.8789   -5.0572   18.3930 F       1  UNL1       -0.2041
     24 C           3.3271   -3.1935   19.3251 C.ar    1  UNL1        0.0624
     25 C           3.1386   -1.9432   20.1321 C.ar    1  UNL1        0.1760
     26 F           1.7755   -1.3298   20.2572 F       1  UNL1       -0.2009
     27 N           1.2337    0.1723   27.4810 N.pl3   1  UNL1       -0.3175
     28 H           1.3194    0.4135   26.5303 H       1  UNL1        0.1482
     29 C          -0.1217    0.1156   28.1211 C.3     1  UNL1        0.0706
     30 C          -1.3886    0.7988   28.5430 C.3     1  UNL1        0.0212
     31 C          -1.2023   -0.6658   28.8077 C.3     1  UNL1        0.0212
@<TRIPOS>BOND
     1     1     2    1
     2     2     3   ar
     3     3     4   ar
     4     4     5   ar
     5     5     6   ar
     6     6    27    1
     7    27    29    1
     8    29    30    1
     9    30    31    1
    10     6     7   ar
    11     7    12    1
    12    12    13    1
    13    13    14    1
    14    14    15    1
    15    15    18    1
    16    18    19    1
    17    19    20   ar
    18    20    21   ar
    19    21    22   ar
    20    22    23    1
    21    22    24   ar
    22    24    25   ar
    23    25    26    1
    24    15    16    1
    25    16    17    1
    26     7     8   ar
    27     8     9   ar
    28     9    10   ar
    29    10    11   ar
    30    11     2   ar
    31     9     4   ar
    32    31    29    1
    33    17    12    1
    34    25    19   ar
    35    27    28    1
@<TRIPOS>MOLECULE
*****
 31 35 0 0 0
SMALL
GASTEIGER

@<TRIPOS>ATOM
      1 C          -7.6433    4.7353   23.3335 C.3     1  UNL1        0.0521
      2 C          -6.4101    4.3141   22.5905 C.ar    1  UNL1        0.0610
      3 C          -5.1002    4.2041   23.3128 C.ar    1  UNL1        0.0354
      4 C          -3.8671    3.7829   22.5698 C.ar    1  UNL1        0.1031
      5 N          -2.5570    3.6729   23.2922 N.ar    1  UNL1       -0.2264
      6 C          -1.3239    3.2517   22.5492 C.ar    1  UNL1        0.1603
      7 C          -1.4009    2.9405   21.0838 C.ar    1  UNL1        0.1634
      8 N          -2.7108    3.0505   20.3615 N.ar    1  UNL1       -0.2247
      9 C          -3.9439    3.4717   21.1045 C.ar    1  UNL1        0.1195
     10 C          -5.2539    3.5817   20.3822 C.ar    1  UNL1        0.1190
     11 N          -6.4870    4.0029   21.1252 N.ar    1  UNL1       -0.2465
     12 N          -0.1678    2.5193   20.3408 N.pl3   1  UNL1       -0.2908
     13 C           0.7355    3.5545   19.7388 C.3     1  UNL1        0.0960
     14 C           1.9686    3.1333   18.9958 C.3     1  UNL1        0.0650
     15 C           2.2984    1.6769   18.8548 C.3     1  UNL1        0.1694
     16 C           1.3952    0.6416   19.4567 C.3     1  UNL1        0.0650
     17 C           0.1621    1.0628   20.1997 C.3     1  UNL1        0.0960
     18 O           3.5316    1.2557   18.1118 O.3     1  UNL1       -0.4768
     19 C           4.2640    0.0115   18.5185 C.ar    1  UNL1        0.1657
     20 C           4.9813   -0.0400   19.8348 C.ar    1  UNL1        0.0415
     21 C           5.7138   -1.2843   20.2416 C.ar    1  UNL1        0.0329
     22 C           5.7289   -2.4769   19.3320 C.ar    1  UNL1        0.1426
     23 F           6.4613   -3.7212   19.7387 F       1  UNL1       -0.2041
     24 C           5.0114   -2.4254   18.0157 C.ar    1  UNL1        0.0624
     25 C           4.2790   -1.1812   17.6089 C.ar    1  UNL1        0.1760
     26 F           3.5616   -1.1296   16.2926 F       1  UNL1       -0.2009
     27 N          -0.0139    3.1416   23.2715 N.pl3   1  UNL1       -0.3175
     28 H           0.7593    3.6725   22.9722 H       1  UNL1        0.1482
     29 C           0.1180    2.2228   24.4498 C.3     1  UNL1        0.0706
     30 C           0.8856    1.1758   25.2011 C.3     1  UNL1        0.0212
     31 C          -0.4212    1.6785   25.7394 C.3     1  UNL1        0.0212
@<TRIPOS>BOND
     1     1     2    1
     2     2     3   ar
     3     3     4   ar
     4     4     5   ar
     5     5     6   ar
     6     6    27    1
     7    27    29    1
     8    29    30    1
     9    30    31    1
    10     6     7   ar
    11     7    12    1
    12    12    13    1
    13    13    14    1
    14    14    15    1
    15    15    18    1
    16    18    19    1
    17    19    20   ar
    18    20    21   ar
    19    21    22   ar
    20    22    23    1
    21    22    24   ar
    22    24    25   ar
    23    25    26    1
    24    15    16    1
    25    16    17    1
    26     7     8   ar
    27     8     9   ar
    28     9    10   ar
    29    10    11   ar
    30    11     2   ar
    31     9     4   ar
    32    31    29    1
    33    17    12    1
    34    25    19   ar
    35    27    28    1
@<TRIPOS>MOLECULE
*****
 31 35 0 0 0
SMALL
GASTEIGER

@<TRIPOS>ATOM
      1 C          -0.9494    3.6522   18.1299 C.3     1  UNL1        0.0521
      2 C           0.0157    2.8310   18.9324 C.ar    1  UNL1        0.0610
      3 C           0.8426    1.7756   18.2598 C.ar    1  UNL1        0.0354
      4 C           1.8077    0.9543   19.0623 C.ar    1  UNL1        0.1031
      5 N           2.6346   -0.1011   18.3896 N.ar    1  UNL1       -0.2264
      6 C           3.5998   -0.9223   19.1922 C.ar    1  UNL1        0.1603
      7 C           3.7380   -0.6882   20.6674 C.ar    1  UNL1        0.1634
      8 N           2.9112    0.3672   21.3400 N.ar    1  UNL1       -0.2247
      9 C           1.9460    1.1884   20.5374 C.ar    1  UNL1        0.1195
     10 C           1.1192    2.2438   21.2100 C.ar    1  UNL1        0.1190
     11 N           0.1540    3.0651   20.4075 N.ar    1  UNL1       -0.2465
     12 N           4.7032   -1.5095   21.4699 N.pl3   1  UNL1       -0.2908
     13 C           6.1647   -1.1724   21.4589 C.3     1  UNL1        0.0960
     14 C           7.1299   -1.9937   22.2614 C.3     1  UNL1        0.0650
     15 C           6.6334   -3.1520   23.0749 C.3     1  UNL1        0.1694
     16 C           5.1718   -3.4891   23.0859 C.3     1  UNL1        0.0650
     17 C           4.2066   -2.6678   22.2834 C.3     1  UNL1        0.0960
     18 O           7.5986   -3.9733   23.8774 O.3     1  UNL1       -0.4768
     19 C           7.2502   -4.3846   25.2772 C.ar    1  UNL1        0.1657
     20 C           6.8846   -3.3455   26.2952 C.ar    1  UNL1        0.0415
     21 C           6.5363   -3.7568   27.6951 C.ar    1  UNL1        0.0329
     22 C           6.5536   -5.2073   28.0768 C.ar    1  UNL1        0.1426
     23 F           6.2053   -5.6186   29.4766 F       1  UNL1       -0.2041
     24 C           6.9192   -6.2465   27.0587 C.ar    1  UNL1        0.0624
     25 C           7.2676   -5.8351   25.6590 C.ar    1  UNL1        0.1760
     26 F           7.6332   -6.8743   24.6409 F       1  UNL1       -0.2009
     27 N           4.4266   -1.9777   18.5195 N.pl3   1  UNL1       -0.3175
     28 H           5.1446   -1.7186   17.8977 H       1  UNL1        0.1482
     29 C           4.1597   -3.4280   18.7943 C.3     1  UNL1        0.0706
     30 C           3.1973   -4.5350   19.1080 C.3     1  UNL1        0.0212
     31 C           4.6597   -4.8328   18.9566 C.3     1  UNL1        0.0212
@<TRIPOS>BOND
     1     1     2    1
     2     2     3   ar
     3     3     4   ar
     4     4     5   ar
     5     5     6   ar
     6     6    27    1
     7    27    29    1
     8    29    30    1
     9    30    31    1
    10     6     7   ar
    11     7    12    1
    12    12    13    1
    13    13    14    1
    14    14    15    1
    15    15    18    1
    16    18    19    1
    17    19    20   ar
    18    20    21   ar
    19    21    22   ar
    20    22    23    1
    21    22    24   ar
    22    24    25   ar
    23    25    26    1
    24    15    16    1
    25    16    17    1
    26     7     8   ar
    27     8     9   ar
    28     9    10   ar
    29    10    11   ar
    30    11     2   ar
    31     9     4   ar
    32    31    29    1
    33    17    12    1
    34    25    19   ar
    35    27    28    1
@<TRIPOS>MOLECULE
*****
 31 35 0 0 0
SMALL
GASTEIGER

@<TRIPOS>ATOM
      1 C          -1.7503    3.2147   20.4718 C.3     1  UNL1        0.0521
      2 C          -0.5917    2.3640   20.9007 C.ar    1  UNL1        0.0610
      3 C           0.1322    1.5199   19.8941 C.ar    1  UNL1        0.0354
      4 C           1.2908    0.6692   20.3230 C.ar    1  UNL1        0.1031
      5 N           2.0147   -0.1749   19.3162 N.ar    1  UNL1       -0.2264
      6 C           3.1733   -1.0256   19.7452 C.ar    1  UNL1        0.1603
      7 C           3.6080   -1.0321   21.1808 C.ar    1  UNL1        0.1634
      8 N           2.8841   -0.1880   22.1875 N.ar    1  UNL1       -0.2247
      9 C           1.7255    0.6627   21.7586 C.ar    1  UNL1        0.1195
     10 C           1.0016    1.5068   22.7652 C.ar    1  UNL1        0.1190
     11 N          -0.1570    2.3574   22.3363 N.ar    1  UNL1       -0.2465
     12 N           4.7666   -1.8828   21.6097 N.pl3   1  UNL1       -0.2908
     13 C           6.1646   -1.4914   21.2326 C.3     1  UNL1        0.0960
     14 C           7.3232   -2.3420   21.6615 C.3     1  UNL1        0.0650
     15 C           7.0838   -3.5842   22.4676 C.3     1  UNL1        0.1694
     16 C           5.6857   -3.9757   22.8448 C.3     1  UNL1        0.0650
     17 C           4.5271   -3.1250   22.4159 C.3     1  UNL1        0.0960
     18 O           8.2424   -4.4348   22.8965 O.3     1  UNL1       -0.4768
     19 C           8.0985   -5.3642   24.0650 C.ar    1  UNL1        0.1657
     20 C           7.7470   -4.8194   25.4177 C.ar    1  UNL1        0.0415
     21 C           7.6030   -5.7488   26.5863 C.ar    1  UNL1        0.0329
     22 C           7.8106   -7.2229   26.4022 C.ar    1  UNL1        0.1426
     23 F           7.6666   -8.1522   27.5708 F       1  UNL1       -0.2041
     24 C           8.1621   -7.7676   25.0495 C.ar    1  UNL1        0.0624
     25 C           8.3060   -6.8383   23.8810 C.ar    1  UNL1        0.1760
     26 F           8.6575   -7.3831   22.5284 F       1  UNL1       -0.2009
     27 N           3.8972   -1.8697   18.7385 N.pl3   1  UNL1       -0.3175
     28 H           4.3633   -1.4438   17.9831 H       1  UNL1        0.1482
     29 C           3.9108   -3.3627   18.8827 C.3     1  UNL1        0.0706
     30 C           4.6523   -4.6657   18.8343 C.3     1  UNL1        0.0212
     31 C           3.1930   -4.6456   19.1808 C.3     1  UNL1        0.0212
@<TRIPOS>BOND
     1     1     2    1
     2     2     3   ar
     3     3     4   ar
     4     4     5   ar
     5     5     6   ar
     6     6    27    1
     7    27    29    1
     8    29    30    1
     9    30    31    1
    10     6     7   ar
    11     7    12    1
    12    12    13    1
    13    13    14    1
    14    14    15    1
    15    15    18    1
    16    18    19    1
    17    19    20   ar
    18    20    21   ar
    19    21    22   ar
    20    22    23    1
    21    22    24   ar
    22    24    25   ar
    23    25    26    1
    24    15    16    1
    25    16    17    1
    26     7     8   ar
    27     8     9   ar
    28     9    10   ar
    29    10    11   ar
    30    11     2   ar
    31     9     4   ar
    32    31    29    1
    33    17    12    1
    34    25    19   ar
    35    27    28    1
@<TRIPOS>MOLECULE
*****
 31 35 0 0 0
SMALL
GASTEIGER

@<TRIPOS>ATOM
      1 C          -0.4555    3.2403   17.9745 C.3     1  UNL1        0.0521
      2 C           0.5467    2.5142   18.8221 C.ar    1  UNL1        0.0610
      3 C           1.3382    1.3799   18.2417 C.ar    1  UNL1        0.0354
      4 C           2.3405    0.6539   19.0892 C.ar    1  UNL1        0.1031
      5 N           3.1321   -0.4805   18.5088 N.ar    1  UNL1       -0.2264
      6 C           4.1343   -1.2065   19.3563 C.ar    1  UNL1        0.1603
      7 C           4.3450   -0.7983   20.7843 C.ar    1  UNL1        0.1634
      8 N           3.5535    0.3360   21.3646 N.ar    1  UNL1       -0.2247
      9 C           2.5512    1.0621   20.5171 C.ar    1  UNL1        0.1195
     10 C           1.7597    2.1963   21.0975 C.ar    1  UNL1        0.1190
     11 N           0.7575    2.9224   20.2499 N.ar    1  UNL1       -0.2465
     12 N           5.3473   -1.5243   21.6318 N.pl3   1  UNL1       -0.2908
     13 C           4.9299   -2.7308   22.4193 C.3     1  UNL1        0.0960
     14 C           5.9321   -3.4568   23.2668 C.3     1  UNL1        0.0650
     15 C           7.3518   -2.9764   23.3269 C.3     1  UNL1        0.1694
     16 C           7.7693   -1.7699   22.5393 C.3     1  UNL1        0.0650
     17 C           6.7671   -1.0439   21.6918 C.3     1  UNL1        0.0960
     18 O           8.3541   -3.7025   24.1744 O.3     1  UNL1       -0.4768
     19 C           7.9851   -5.0033   24.8238 C.ar    1  UNL1        0.1657
     20 C           8.4020   -6.3000   24.1956 C.ar    1  UNL1        0.0415
     21 C           8.0330   -7.6008   24.8450 C.ar    1  UNL1        0.0329
     22 C           7.2471   -7.6049   26.1227 C.ar    1  UNL1        0.1426
     23 F           6.8781   -8.9057   26.7721 F       1  UNL1       -0.2041
     24 C           6.8302   -6.3081   26.7509 C.ar    1  UNL1        0.0624
     25 C           7.1992   -5.0073   26.1015 C.ar    1  UNL1        0.1760
     26 F           6.7823   -3.7106   26.7297 F       1  UNL1       -0.2009
     27 N           4.9259   -2.3408   18.7760 N.pl3   1  UNL1       -0.3175
     28 H           5.7795   -2.1623   18.3191 H       1  UNL1        0.1482
     29 C           4.4168   -3.7470   18.8917 C.3     1  UNL1        0.0706
     30 C           4.6433   -5.2247   18.7690 C.3     1  UNL1        0.0212
     31 C           3.3087   -4.7050   19.2147 C.3     1  UNL1        0.0212
@<TRIPOS>BOND
     1     1     2    1
     2     2     3   ar
     3     3     4   ar
     4     4     5   ar
     5     5     6   ar
     6     6    27    1
     7    27    29    1
     8    29    30    1
     9    30    31    1
    10     6     7   ar
    11     7    12    1
    12    12    13    1
    13    13    14    1
    14    14    15    1
    15    15    18    1
    16    18    19    1
    17    19    20   ar
    18    20    21   ar
    19    21    22   ar
    20    22    23    1
    21    22    24   ar
    22    24    25   ar
    23    25    26    1
    24    15    16    1
    25    16    17    1
    26     7     8   ar
    27     8     9   ar
    28     9    10   ar
    29    10    11   ar
    30    11     2   ar
    31     9     4   ar
    32    31    29    1
    33    17    12    1
    34    25    19   ar
    35    27    28    1
@<TRIPOS>MOLECULE
*****
 31 35 0 0 0
SMALL
GASTEIGER

@<TRIPOS>ATOM
      1 C          -5.9310    6.0343   26.4798 C.3     1  UNL1        0.0521
      2 C          -4.7556    5.4251   25.7747 C.ar    1  UNL1        0.0610
      3 C          -3.9469    4.3573   26.4498 C.ar    1  UNL1        0.0354
      4 C          -2.7714    3.7481   25.7446 C.ar    1  UNL1        0.1031
      5 N          -1.9627    2.6803   26.4198 N.ar    1  UNL1       -0.2264
      6 C          -0.7873    2.0711   25.7146 C.ar    1  UNL1        0.1603
      7 C          -0.4205    2.5298   24.3343 C.ar    1  UNL1        0.1634
      8 N          -1.2292    3.5976   23.6593 N.ar    1  UNL1       -0.2247
      9 C          -2.4046    4.2068   24.3644 C.ar    1  UNL1        0.1195
     10 C          -3.2133    5.2746   23.6893 C.ar    1  UNL1        0.1190
     11 N          -4.3888    5.8837   24.3944 N.ar    1  UNL1       -0.2465
     12 N           0.7549    1.9206   23.6292 N.pl3   1  UNL1       -0.2908
     13 C           0.5457    1.1135   22.3823 C.3     1  UNL1        0.0960
     14 C           1.7212    0.5043   21.6772 C.3     1  UNL1        0.0650
     15 C           3.1058    0.7023   22.2189 C.3     1  UNL1        0.1694
     16 C           3.3151    1.5094   23.4659 C.3     1  UNL1        0.0650
     17 C           2.1396    2.1186   24.1710 C.3     1  UNL1        0.0960
     18 O           4.2813    0.0931   21.5138 O.3     1  UNL1       -0.4768
     19 C           4.1956   -1.3084   20.9862 C.ar    1  UNL1        0.1657
     20 C           4.4491   -2.4705   21.9000 C.ar    1  UNL1        0.0415
     21 C           4.3634   -3.8721   21.3724 C.ar    1  UNL1        0.0329
     22 C           4.0241   -4.1115   19.9310 C.ar    1  UNL1        0.1426
     23 F           3.9384   -5.5130   19.4034 F       1  UNL1       -0.2041
     24 C           3.7706   -2.9492   19.0172 C.ar    1  UNL1        0.0624
     25 C           3.8563   -1.5477   19.5448 C.ar    1  UNL1        0.1760
     26 F           3.6027   -0.3856   18.6310 F       1  UNL1       -0.2009
     27 N           0.0214    1.0033   26.3897 N.pl3   1  UNL1       -0.3175
     28 H           0.7945    0.6054   25.9280 H       1  UNL1        0.1482
     29 C          -0.3478    0.5417   27.7684 C.3     1  UNL1        0.0706
     30 C          -0.2048    0.6532   29.2573 C.3     1  UNL1        0.0212
     31 C          -1.1303   -0.3692   28.6672 C.3     1  UNL1        0.0212
@<TRIPOS>BOND
     1     1     2    1
     2     2     3   ar
     3     3     4   ar
     4     4     5   ar
     5     5     6   ar
     6     6    27    1
     7    27    29    1
     8    29    30    1
     9    30    31    1
    10     6     7   ar
    11     7    12    1
    12    12    13    1
    13    13    14    1
    14    14    15    1
    15    15    18    1
    16    18    19    1
    17    19    20   ar
    18    20    21   ar
    19    21    22   ar
    20    22    23    1
    21    22    24   ar
    22    24    25   ar
    23    25    26    1
    24    15    16    1
    25    16    17    1
    26     7     8   ar
    27     8     9   ar
    28     9    10   ar
    29    10    11   ar
    30    11     2   ar
    31     9     4   ar
    32    31    29    1
    33    17    12    1
    34    25    19   ar
    35    27    28    1
@<TRIPOS>MOLECULE
*****
 31 35 0 0 0
SMALL
GASTEIGER

@<TRIPOS>ATOM
      1 C          -5.1592    4.8500   26.9874 C.3     1  UNL1        0.0521
      2 C          -4.0797    4.3880   26.0540 C.ar    1  UNL1        0.0610
      3 C          -4.2855    4.4691   24.5704 C.ar    1  UNL1        0.0354
      4 C          -3.2060    4.0071   23.6371 C.ar    1  UNL1        0.1031
      5 N          -3.4119    4.0882   22.1534 N.ar    1  UNL1       -0.2264
      6 C          -2.3324    3.6262   21.2201 C.ar    1  UNL1        0.1603
      7 C          -1.0469    3.0831   21.7703 C.ar    1  UNL1        0.1634
      8 N          -0.8411    3.0021   23.2539 N.ar    1  UNL1       -0.2247
      9 C          -1.9206    3.4640   24.1873 C.ar    1  UNL1        0.1195
     10 C          -1.7147    3.3830   25.6708 C.ar    1  UNL1        0.1190
     11 N          -2.7943    3.8449   26.6042 N.ar    1  UNL1       -0.2465
     12 N           0.0326    2.6212   20.8370 N.pl3   1  UNL1       -0.2908
     13 C           1.0769    3.5871   20.3614 C.3     1  UNL1        0.0960
     14 C           2.1565    3.1252   19.4280 C.3     1  UNL1        0.0650
     15 C           2.1917    1.6972   18.9702 C.3     1  UNL1        0.1694
     16 C           1.1473    0.7311   19.4458 C.3     1  UNL1        0.0650
     17 C           0.0678    1.1931   20.3792 C.3     1  UNL1        0.0960
     18 O           3.2712    1.2352   18.0369 O.3     1  UNL1       -0.4768
     19 C           4.1568    0.0881   18.4237 C.ar    1  UNL1        0.1657
     20 C           4.9337    0.1395   19.7057 C.ar    1  UNL1        0.0415
     21 C           5.8194   -1.0077   20.0926 C.ar    1  UNL1        0.0329
     22 C           5.9282   -2.2062   19.1973 C.ar    1  UNL1        0.1426
     23 F           6.8138   -3.3534   19.5841 F       1  UNL1       -0.2041
     24 C           5.1512   -2.2577   17.9152 C.ar    1  UNL1        0.0624
     25 C           4.2656   -1.1105   17.5284 C.ar    1  UNL1        0.1760
     26 F           3.4888   -1.1620   16.2463 F       1  UNL1       -0.2009
     27 N          -2.5383    3.7073   19.7365 N.pl3   1  UNL1       -0.3175
     28 H          -1.7620    3.7749   19.1348 H       1  UNL1        0.1482
     29 C          -3.9269    3.6854   19.1697 C.3     1  UNL1        0.0706
     30 C          -4.8458    3.6364   17.9852 C.3     1  UNL1        0.0212
     31 C          -5.4130    3.6964   19.3725 C.3     1  UNL1        0.0212
@<TRIPOS>BOND
     1     1     2    1
     2     2     3   ar
     3     3     4   ar
     4     4     5   ar
     5     5     6   ar
     6     6    27    1
     7    27    29    1
     8    29    30    1
     9    30    31    1
    10     6     7   ar
    11     7    12    1
    12    12    13    1
    13    13    14    1
    14    14    15    1
    15    15    18    1
    16    18    19    1
    17    19    20   ar
    18    20    21   ar
    19    21    22   ar
    20    22    23    1
    21    22    24   ar
    22    24    25   ar
    23    25    26    1
    24    15    16    1
    25    16    17    1
    26     7     8   ar
    27     8     9   ar
    28     9    10   ar
    29    10    11   ar
    30    11     2   ar
    31     9     4   ar
    32    31    29    1
    33    17    12    1
    34    25    19   ar
    35    27    28    1
@<TRIPOS>MOLECULE
*****
 31 35 0 0 0
SMALL
GASTEIGER

@<TRIPOS>ATOM
      1 C          -1.6197    6.7729   34.0240 C.3     1  UNL1        0.0521
      2 C          -0.5452    5.7453   33.8253 C.ar    1  UNL1        0.0610
      3 C          -0.5874    4.8369   32.6325 C.ar    1  UNL1        0.0354
      4 C           0.4871    3.8093   32.4338 C.ar    1  UNL1        0.1031
      5 N           0.4448    2.9009   31.2409 N.ar    1  UNL1       -0.2264
      6 C           1.5194    1.8733   31.0423 C.ar    1  UNL1        0.1603
      7 C           2.6362    1.7541   32.0366 C.ar    1  UNL1        0.1634
      8 N           2.6784    2.6625   33.2295 N.ar    1  UNL1       -0.2247
      9 C           1.6039    3.6901   33.4281 C.ar    1  UNL1        0.1195
     10 C           1.6461    4.5985   34.6210 C.ar    1  UNL1        0.1190
     11 N           0.5716    5.6261   34.8196 N.ar    1  UNL1       -0.2465
     12 N           3.7107    0.7265   31.8380 N.pl3   1  UNL1       -0.2908
     13 C           3.5448   -0.6516   32.4064 C.3     1  UNL1        0.0960
     14 C           4.6193   -1.6792   32.2077 C.3     1  UNL1        0.0650
     15 C           5.8597   -1.3287   31.4407 C.3     1  UNL1        0.1694
     16 C           6.0257    0.0495   30.8723 C.3     1  UNL1        0.0650
     17 C           4.9512    1.0771   31.0709 C.3     1  UNL1        0.0960
     18 O           6.9342   -2.3563   31.2421 O.3     1  UNL1       -0.4768
     19 C           6.8201   -3.3553   30.1291 C.ar    1  UNL1        0.1657
     20 C           6.6026   -2.8874   28.7207 C.ar    1  UNL1        0.0415
     21 C           6.4885   -3.8864   27.6076 C.ar    1  UNL1        0.0329
     22 C           6.5917   -5.3534   27.9030 C.ar    1  UNL1        0.1426
     23 F           6.4775   -6.3525   26.7900 F       1  UNL1       -0.2041
     24 C           6.8092   -5.8214   29.3115 C.ar    1  UNL1        0.0624
     25 C           6.9233   -4.8223   30.4245 C.ar    1  UNL1        0.1760
     26 F           7.1408   -5.2903   31.8329 F       1  UNL1       -0.2009
     27 N           1.4771    0.9649   29.8494 N.pl3   1  UNL1       -0.3175
     28 H           2.3092    0.5697   29.5019 H       1  UNL1        0.1482
     29 C           0.1672    0.6587   29.1858 C.3     1  UNL1        0.0706
     30 C          -0.9815    1.0847   28.3204 C.3     1  UNL1        0.0212
     31 C          -0.9530   -0.2976   28.9021 C.3     1  UNL1        0.0212
@<TRIPOS>BOND
     1     1     2    1
     2     2     3   ar
     3     3     4   ar
     4     4     5   ar
     5     5     6   ar
     6     6    27    1
     7    27    29    1
     8    29    30    1
     9    30    31    1
    10     6     7   ar
    11     7    12    1
    12    12    13    1
    13    13    14    1
    14    14    15    1
    15    15    18    1
    16    18    19    1
    17    19    20   ar
    18    20    21   ar
    19    21    22   ar
    20    22    23    1
    21    22    24   ar
    22    24    25   ar
    23    25    26    1
    24    15    16    1
    25    16    17    1
    26     7     8   ar
    27     8     9   ar
    28     9    10   ar
    29    10    11   ar
    30    11     2   ar
    31     9     4   ar
    32    31    29    1
    33    17    12    1
    34    25    19   ar
    35    27    28    1
@<TRIPOS>MOLECULE
*****
 31 35 0 0 0
SMALL
GASTEIGER

@<TRIPOS>ATOM
      1 C           3.6675   -0.9187   16.6115 C.3     1  UNL1        0.0521
      2 C           4.4159   -1.3602   17.8342 C.ar    1  UNL1        0.0610
      3 C           3.7635   -1.2803   19.1825 C.ar    1  UNL1        0.0354
      4 C           4.5120   -1.7217   20.4052 C.ar    1  UNL1        0.1031
      5 N           3.8594   -1.6419   21.7536 N.ar    1  UNL1       -0.2264
      6 C           4.6079   -2.0833   22.9763 C.ar    1  UNL1        0.1603
      7 C           6.0088   -2.6046   22.8506 C.ar    1  UNL1        0.1634
      8 N           6.6613   -2.6844   21.5023 N.ar    1  UNL1       -0.2247
      9 C           5.9128   -2.2430   20.2796 C.ar    1  UNL1        0.1195
     10 C           6.5652   -2.3228   18.9314 C.ar    1  UNL1        0.1190
     11 N           5.8168   -1.8814   17.7087 N.ar    1  UNL1       -0.2465
     12 N           6.7573   -3.0460   24.0733 N.pl3   1  UNL1       -0.2908
     13 C           6.6109   -4.4518   24.5754 C.3     1  UNL1        0.0960
     14 C           7.3594   -4.8933   25.7981 C.3     1  UNL1        0.0650
     15 C           8.2542   -3.9289   26.5187 C.3     1  UNL1        0.1694
     16 C           8.4005   -2.5229   26.0166 C.3     1  UNL1        0.0650
     17 C           7.6521   -2.0815   24.7939 C.3     1  UNL1        0.0960
     18 O           9.0026   -4.3703   27.7414 O.3     1  UNL1       -0.4768
     19 C           8.3016   -4.4391   29.0657 C.ar    1  UNL1        0.1657
     20 C           8.1957   -3.2126   29.9227 C.ar    1  UNL1        0.0415
     21 C           7.4947   -3.2813   31.2472 C.ar    1  UNL1        0.0329
     22 C           6.8997   -4.5766   31.7145 C.ar    1  UNL1        0.1426
     23 F           6.1988   -4.6453   33.0388 F       1  UNL1       -0.2041
     24 C           7.0057   -5.8031   30.8574 C.ar    1  UNL1        0.0624
     25 C           7.7067   -5.7343   29.5330 C.ar    1  UNL1        0.1760
     26 F           7.8126   -6.9607   28.6760 F       1  UNL1       -0.2009
     27 N           3.9555   -2.0035   24.3245 N.pl3   1  UNL1       -0.3175
     28 H           3.9055   -2.8041   24.8954 H       1  UNL1        0.1482
     29 C           3.3792   -0.7039   24.8031 C.3     1  UNL1        0.0706
     30 C           2.4790    0.4761   24.5862 C.3     1  UNL1        0.0212
     31 C           3.2812    0.3668   25.8490 C.3     1  UNL1        0.0212
@<TRIPOS>BOND
     1     1     2    1
     2     2     3   ar
     3     3     4   ar
     4     4     5   ar
     5     5     6   ar
     6     6    27    1
     7    27    29    1
     8    29    30    1
     9    30    31    1
    10     6     7   ar
    11     7    12    1
    12    12    13    1
    13    13    14    1
    14    14    15    1
    15    15    18    1
    16    18    19    1
    17    19    20   ar
    18    20    21   ar
    19    21    22   ar
    20    22    23    1
    21    22    24   ar
    22    24    25   ar
    23    25    26    1
    24    15    16    1
    25    16    17    1
    26     7     8   ar
    27     8     9   ar
    28     9    10   ar
    29    10    11   ar
    30    11     2   ar
    31     9     4   ar
    32    31    29    1
    33    17    12    1
    34    25    19   ar
    35    27    28    1
