@<TRIPOS>MOLECULE
*****
 8 7 0 0 0
SMALL
GASTEIGER

@<TRIPOS>ATOM
      1 C           2.6544  -13.6544   28.7105 C.3     1  UNL1        0.0321
      2 C           3.1914  -12.3363   29.1838 C.3     1  UNL1        0.0055
      3 C           2.1175  -14.9726   28.2371 C.3     1  UNL1        0.0055
      4 C           3.9844  -13.9754   28.0956 C.2     1  UNL1        0.0496
      5 O           4.0493  -14.6154   26.7404 O.co2   1  UNL1       -0.5492
      6 O           5.2495  -13.6565   28.8358 O.co2   1  UNL1       -0.5492
      7 C           0.1022  -13.2374   28.4612 C.3     1  UNL1        0.0004
      8 C           1.3244  -13.3334   29.3254 C.3     1  UNL1        0.0052
@<TRIPOS>UNITY_ATOM_ATTR
5 1
charge -1
@<TRIPOS>BOND
     1     7     8    1
     2     8     1    1
     3     1     2    1
     4     1     3    1
     5     1     4    1
     6     4     5   ar
     7     4     6   ar
@<TRIPOS>MOLECULE
*****
 8 7 0 0 0
SMALL
GASTEIGER

@<TRIPOS>ATOM
      1 C           2.6809  -13.6512   28.7061 C.3     1  UNL1        0.0321
      2 C           2.1586  -14.9811   28.2497 C.3     1  UNL1        0.0055
      3 C           3.2032  -12.3212   29.1625 C.3     1  UNL1        0.0055
      4 C           4.0123  -13.9624   28.0892 C.2     1  UNL1        0.0496
      5 O           4.0800  -14.5943   26.7304 O.co2   1  UNL1       -0.5492
      6 O           5.2759  -13.6417   28.8310 O.co2   1  UNL1       -0.5492
      7 C           0.1252  -13.2532   28.4607 C.3     1  UNL1        0.0004
      8 C           1.3495  -13.3400   29.3230 C.3     1  UNL1        0.0052
@<TRIPOS>UNITY_ATOM_ATTR
5 1
charge -1
@<TRIPOS>BOND
     1     7     8    1
     2     8     1    1
     3     1     2    1
     4     1     3    1
     5     1     4    1
     6     4     5   ar
     7     4     6   ar
@<TRIPOS>MOLECULE
*****
 8 7 0 0 0
SMALL
GASTEIGER

@<TRIPOS>ATOM
      1 C           3.7013  -13.0531   27.8413 C.3     1  UNL1        0.0321
      2 C           4.5911  -11.8494   27.9369 C.3     1  UNL1        0.0055
      3 C           2.8115  -14.2569   27.7457 C.3     1  UNL1        0.0055
      4 C           4.4385  -13.5005   26.6140 C.2     1  UNL1        0.0496
      5 O           5.9302  -13.3599   26.5420 O.co2   1  UNL1       -0.5492
      6 O           3.6840  -14.0885   25.4585 O.co2   1  UNL1       -0.5492
      7 C           1.8073  -13.4098   29.5837 C.3     1  UNL1        0.0004
      8 C           2.9641  -12.6057   29.0687 C.3     1  UNL1        0.0052
@<TRIPOS>UNITY_ATOM_ATTR
5 1
charge -1
@<TRIPOS>BOND
     1     7     8    1
     2     8     1    1
     3     1     2    1
     4     1     3    1
     5     1     4    1
     6     4     5   ar
     7     4     6   ar
@<TRIPOS>MOLECULE
*****
 8 7 0 0 0
SMALL
GASTEIGER

@<TRIPOS>ATOM
      1 C         -12.0114  -17.6460   21.8585 C.3     1  UNL1        0.0321
      2 C         -11.5531  -18.9954   21.3906 C.3     1  UNL1        0.0055
      3 C         -12.4697  -16.2966   22.3263 C.3     1  UNL1        0.0055
      4 C         -11.6955  -17.0710   20.5096 C.2     1  UNL1        0.0496
      5 O         -10.4526  -17.4963   19.7853 O.co2   1  UNL1       -0.5492
      6 O         -12.6224  -16.0708   19.8848 O.co2   1  UNL1       -0.5492
      7 C         -13.6577  -17.9505   23.8452 C.3     1  UNL1        0.0004
      8 C         -12.3273  -18.2210   23.2074 C.3     1  UNL1        0.0052
@<TRIPOS>UNITY_ATOM_ATTR
5 1
charge -1
@<TRIPOS>BOND
     1     7     8    1
     2     8     1    1
     3     1     2    1
     4     1     3    1
     5     1     4    1
     6     4     5   ar
     7     4     6   ar
@<TRIPOS>MOLECULE
*****
 8 7 0 0 0
SMALL
GASTEIGER

@<TRIPOS>ATOM
      1 C         -11.9675  -17.6551   21.8267 C.3     1  UNL1        0.0321
      2 C         -12.4303  -16.3015   22.2777 C.3     1  UNL1        0.0055
      3 C         -11.5046  -19.0087   21.3758 C.3     1  UNL1        0.0055
      4 C         -11.6478  -17.0946   20.4726 C.2     1  UNL1        0.0496
      5 O         -12.5563  -16.0773   19.8484 O.co2   1  UNL1       -0.5492
      6 O         -10.4196  -17.5515   19.7427 O.co2   1  UNL1       -0.5492
      7 C         -13.6227  -17.9454   23.8082 C.3     1  UNL1        0.0004
      8 C         -12.2872  -18.2155   23.1809 C.3     1  UNL1        0.0052
@<TRIPOS>UNITY_ATOM_ATTR
5 1
charge -1
@<TRIPOS>BOND
     1     7     8    1
     2     8     1    1
     3     1     2    1
     4     1     3    1
     5     1     4    1
     6     4     5   ar
     7     4     6   ar
@<TRIPOS>MOLECULE
*****
 8 7 0 0 0
SMALL
GASTEIGER

@<TRIPOS>ATOM
      1 C          -2.4658  -18.5467   19.8751 C.3     1  UNL1        0.0321
      2 C          -2.6861  -17.5650   18.7627 C.3     1  UNL1        0.0055
      3 C          -2.2456  -19.5285   20.9876 C.3     1  UNL1        0.0055
      4 C          -1.0963  -17.9797   20.1044 C.2     1  UNL1        0.0496
      5 O          -0.9410  -16.5858   20.6365 O.co2   1  UNL1       -0.5492
      6 O           0.1182  -18.8064   19.8016 O.co2   1  UNL1       -0.5492
      7 C          -4.1167  -20.5506   19.9722 C.3     1  UNL1        0.0004
      8 C          -3.8355  -19.1138   19.6458 C.3     1  UNL1        0.0052
@<TRIPOS>UNITY_ATOM_ATTR
5 1
charge -1
@<TRIPOS>BOND
     1     7     8    1
     2     8     1    1
     3     1     2    1
     4     1     3    1
     5     1     4    1
     6     4     5   ar
     7     4     6   ar
@<TRIPOS>MOLECULE
*****
 8 7 0 0 0
SMALL
GASTEIGER

@<TRIPOS>ATOM
      1 C         -11.2512  -18.9774   21.5204 C.3     1  UNL1        0.0321
      2 C         -11.9107  -18.2947   22.6818 C.3     1  UNL1        0.0055
      3 C         -10.5916  -19.6601   20.3591 C.3     1  UNL1        0.0055
      4 C         -11.5536  -17.7923   20.6521 C.2     1  UNL1        0.0496
      5 O         -10.5408  -17.3166   19.6530 O.co2   1  UNL1       -0.5492
      6 O         -12.8688  -17.0829   20.7826 O.co2   1  UNL1       -0.5492
      7 C          -9.8280  -20.0968   23.3837 C.3     1  UNL1        0.0004
      8 C         -10.9488  -20.1625   22.3889 C.3     1  UNL1        0.0052
@<TRIPOS>UNITY_ATOM_ATTR
5 1
charge -1
@<TRIPOS>BOND
     1     7     8    1
     2     8     1    1
     3     1     2    1
     4     1     3    1
     5     1     4    1
     6     4     5   ar
     7     4     6   ar
@<TRIPOS>MOLECULE
*****
 8 7 0 0 0
SMALL
GASTEIGER

@<TRIPOS>ATOM
      1 C          -2.0299  -17.9977   21.2339 C.3     1  UNL1        0.0321
      2 C          -1.7794  -16.5190   21.2571 C.3     1  UNL1        0.0055
      3 C          -2.2804  -19.4765   21.2108 C.3     1  UNL1        0.0055
      4 C          -1.3454  -18.0928   19.9026 C.2     1  UNL1        0.0496
      5 O          -2.0030  -17.5266   18.6791 O.co2   1  UNL1       -0.5492
      6 O          -0.0034  -18.7542   19.7948 O.co2   1  UNL1       -0.5492
      7 C          -3.9978  -18.6416   22.8033 C.3     1  UNL1        0.0004
      8 C          -2.7144  -17.9026   22.5653 C.3     1  UNL1        0.0052
@<TRIPOS>UNITY_ATOM_ATTR
5 1
charge -1
@<TRIPOS>BOND
     1     7     8    1
     2     8     1    1
     3     1     2    1
     4     1     3    1
     5     1     4    1
     6     4     5   ar
     7     4     6   ar
@<TRIPOS>MOLECULE
*****
 8 7 0 0 0
SMALL
GASTEIGER

@<TRIPOS>ATOM
      1 C          -6.7004  -15.4147   25.3596 C.3     1  UNL1        0.0321
      2 C          -5.2394  -15.4925   25.6903 C.3     1  UNL1        0.0055
      3 C          -8.1613  -15.3369   25.0288 C.3     1  UNL1        0.0055
      4 C          -6.3662  -15.3500   23.8987 C.2     1  UNL1        0.0496
      5 O          -7.3905  -15.7457   22.8768 O.co2   1  UNL1       -0.5492
      6 O          -5.0078  -14.8897   23.4597 O.co2   1  UNL1       -0.5492
      7 C          -8.2414  -16.2419   27.2808 C.3     1  UNL1        0.0004
      8 C          -7.0345  -15.4794   26.8205 C.3     1  UNL1        0.0052
@<TRIPOS>UNITY_ATOM_ATTR
5 1
charge -1
@<TRIPOS>BOND
     1     7     8    1
     2     8     1    1
     3     1     2    1
     4     1     3    1
     5     1     4    1
     6     4     5   ar
     7     4     6   ar
