@<TRIPOS>MOLECULE
*****
 35 37 0 0 0
SMALL
GASTEIGER

@<TRIPOS>ATOM
      1 N           4.0568   -2.5054   20.4984 N.am    1  UNL1       -0.2560
      2 C           4.9665   -3.2411   21.4371 C.3     1  UNL1        0.1394
      3 C           4.7572   -2.6868   22.8151 C.ar    1  UNL1        0.0662
      4 C           5.1901   -2.7990   24.2469 C.ar    1  UNL1        0.0247
      5 C           4.4187   -1.7899   25.0448 C.ar    1  UNL1        0.0614
      6 C           3.5090   -1.0541   24.1061 C.ar    1  UNL1        0.0922
      7 N           3.7182   -1.6084   22.7281 N.ar    1  UNL1       -0.2624
      8 C           3.2853   -1.4963   21.2963 C.2     1  UNL1        0.3234
      9 O           2.2608   -0.5425   20.7571 O.2     1  UNL1       -0.2490
     10 C           4.5362   -1.5574   26.5220 C.1     1  UNL1       -0.0497
     11 C           4.6538   -1.3248   27.9992 C.1     1  UNL1       -0.0095
     12 C           4.7714   -1.0923   29.4764 C.1     1  UNL1       -0.0138
     13 C           4.8892   -0.8597   30.9536 C.1     1  UNL1       -0.0761
     14 C           5.0068   -0.6271   32.4307 C.3     1  UNL1        0.0969
     15 C           4.4808   -1.3116   33.6575 C.3     1  UNL1        0.0867
     16 N           5.1733   -0.2982   34.5197 N.3     1  UNL1       -0.2688
     17 C           5.6993    0.3862   33.2930 C.3     1  UNL1        0.0867
     18 C           5.2910   -0.0656   35.9969 C.3     1  UNL1        0.1043
     19 C           4.3170    0.8374   36.6939 C.3     1  UNL1        0.1544
     20 O           3.5452    0.3365   37.8785 O.3     1  UNL1       -0.3805
     21 H           2.9405   -0.3675   37.5963 H       1  UNL1        0.2105
     22 C           3.9392   -2.7379   19.0213 C.3     1  UNL1        0.0977
     23 C           5.0832   -2.3930   18.1143 C.3     1  UNL1        0.0524
     24 C           6.1941    0.3936   18.0941 C.3     1  UNL1        0.0331
     25 C           5.6386   -0.9998   18.1042 C.3     1  UNL1        0.1820
     26 C           4.3169   -0.4762   17.6258 C.2     1  UNL1        0.2640
     27 O           3.7505   -0.9503   16.3202 O.2     1  UNL1       -0.2713
     28 N           3.5615    0.5214   18.4529 N.am    1  UNL1       -0.1956
     29 O           2.2398    1.0450   17.9745 O.3     1  UNL1       -0.2951
     30 H           3.9332    0.8326   19.3098 H       1  UNL1        0.1823
     31 H           2.0214    0.6398   17.1206 H       1  UNL1        0.2414
     32 S           6.9604   -1.5232   18.5826 S.O2    1  UNL1       -0.0034
     33 C           8.2822   -2.0467   19.0609 C.3     1  UNL1        0.1765
     34 O           7.0757   -2.3630   17.3451 O.2     1  UNL1       -0.1726
     35 O           6.8451   -0.6835   19.8201 O.2     1  UNL1       -0.1726
@<TRIPOS>BOND
     1    25    24    1
     2    25    23    1
     3    23    22    1
     4    22     1    1
     5     1     2    1
     6     2     3    1
     7     3     4   ar
     8     4     5   ar
     9     5    10    1
    10    10    11    3
    11    11    12    1
    12    12    13    3
    13    13    14    1
    14    14    15    1
    15    15    16    1
    16    16    18    1
    17    18    19    1
    18    19    20    1
    19    16    17    1
    20     5     6   ar
    21     6     7   ar
    22     7     8   am
    23     8     9    2
    24    25    26    1
    25    26    27    2
    26    26    28   am
    27    28    29    1
    28    25    32    1
    29    32    33    1
    30    32    34    2
    31    32    35    2
    32     8     1   am
    33     7     3   ar
    34    17    14    1
    35    20    21    1
    36    28    30    1
    37    29    31    1
@<TRIPOS>MOLECULE
*****
 35 37 0 0 0
SMALL
GASTEIGER

@<TRIPOS>ATOM
      1 N           5.2935   -1.4776   30.2465 N.am    1  UNL1       -0.2560
      2 C           5.1843   -0.8621   28.8829 C.3     1  UNL1        0.1394
      3 C           3.8107   -0.2749   28.7479 C.ar    1  UNL1        0.0662
      4 C           2.8943    0.4683   27.8217 C.ar    1  UNL1        0.0247
      5 C           1.5881    0.6752   28.5295 C.ar    1  UNL1        0.0614
      6 C           1.6971    0.0598   29.8931 C.ar    1  UNL1        0.0922
      7 N           3.0708   -0.5274   30.0280 N.ar    1  UNL1       -0.2624
      8 C           3.9872   -1.2707   30.9542 C.2     1  UNL1        0.3234
      9 O           3.6555   -1.7270   32.3441 O.2     1  UNL1       -0.2490
     10 C           0.3841    1.3746   27.9716 C.1     1  UNL1       -0.0497
     11 C          -0.8199    2.0741   27.4137 C.1     1  UNL1       -0.0095
     12 C          -2.0238    2.7736   26.8558 C.1     1  UNL1       -0.0138
     13 C          -3.2278    3.4731   26.2980 C.1     1  UNL1       -0.0761
     14 C          -4.4317    4.1726   25.7401 C.3     1  UNL1        0.0969
     15 C          -5.2152    4.0811   24.4642 C.3     1  UNL1        0.0867
     16 N          -6.1343    5.1618   24.9512 N.3     1  UNL1       -0.2688
     17 C          -5.3509    5.2533   26.2271 C.3     1  UNL1        0.0867
     18 C          -7.3383    5.8614   24.3934 C.3     1  UNL1        0.1043
     19 C          -8.6333    5.1197   24.2418 C.3     1  UNL1        0.1544
     20 O          -8.6645    3.8047   23.5209 O.3     1  UNL1       -0.3805
     21 H          -8.4464    3.9432   22.5859 H       1  UNL1        0.2105
     22 C           6.4974   -2.1770   30.8043 C.3     1  UNL1        0.0977
     23 C           7.6296   -2.5597   29.8978 C.3     1  UNL1        0.0524
     24 C           7.6307   -5.2388   28.5480 C.3     1  UNL1        0.0331
     25 C           7.6302   -3.8992   29.2229 C.3     1  UNL1        0.1820
     26 C           7.6439   -4.5741   30.5624 C.2     1  UNL1        0.2640
     27 O           8.7434   -4.2797   31.5394 O.2     1  UNL1       -0.2713
     28 N           6.5581   -5.5435   30.9250 N.am    1  UNL1       -0.1956
     29 O           6.5719   -6.2184   32.2645 O.3     1  UNL1       -0.2951
     30 H           5.8365   -5.7367   30.2838 H       1  UNL1        0.1823
     31 H           7.3440   -5.9190   32.7695 H       1  UNL1        0.2414
     32 S           7.6165   -3.2244   27.8834 S.O2    1  UNL1       -0.0034
     33 C           7.6028   -2.5495   26.5439 C.3     1  UNL1        0.1765
     34 O           8.8714   -2.4854   28.2429 O.2     1  UNL1       -0.1726
     35 O           6.3617   -3.9633   27.5239 O.2     1  UNL1       -0.1726
@<TRIPOS>BOND
     1    25    24    1
     2    25    23    1
     3    23    22    1
     4    22     1    1
     5     1     2    1
     6     2     3    1
     7     3     4   ar
     8     4     5   ar
     9     5    10    1
    10    10    11    3
    11    11    12    1
    12    12    13    3
    13    13    14    1
    14    14    15    1
    15    15    16    1
    16    16    18    1
    17    18    19    1
    18    19    20    1
    19    16    17    1
    20     5     6   ar
    21     6     7   ar
    22     7     8   am
    23     8     9    2
    24    25    26    1
    25    26    27    2
    26    26    28   am
    27    28    29    1
    28    25    32    1
    29    32    33    1
    30    32    34    2
    31    32    35    2
    32     8     1   am
    33     7     3   ar
    34    17    14    1
    35    20    21    1
    36    28    30    1
    37    29    31    1
@<TRIPOS>MOLECULE
*****
 35 37 0 0 0
SMALL
GASTEIGER

@<TRIPOS>ATOM
      1 N           3.9989    0.9292   34.4853 N.am    1  UNL1       -0.2560
      2 C           2.9345    1.2828   33.4892 C.3     1  UNL1        0.1394
      3 C           3.3352    0.7131   32.1608 C.ar    1  UNL1        0.0662
      4 C           2.9250    0.5796   30.7241 C.ar    1  UNL1        0.0247
      5 C           3.9834   -0.2087   30.0112 C.ar    1  UNL1        0.0614
      6 C           5.0478   -0.5624   31.0073 C.ar    1  UNL1        0.0922
      7 N           4.6472    0.0073   32.3357 N.ar    1  UNL1       -0.2624
      8 C           5.0574    0.1408   33.7724 C.2     1  UNL1        0.3234
      9 O           6.3067   -0.4162   34.3880 O.2     1  UNL1       -0.2490
     10 C           3.9784   -0.5785   28.5575 C.1     1  UNL1       -0.0497
     11 C           3.9734   -0.9482   27.1038 C.1     1  UNL1       -0.0095
     12 C           3.9684   -1.3180   25.6501 C.1     1  UNL1       -0.0138
     13 C           3.9634   -1.6879   24.1964 C.1     1  UNL1       -0.0761
     14 C           3.9585   -2.0577   22.7428 C.3     1  UNL1        0.0969
     15 C           3.3641   -1.4651   21.4995 C.3     1  UNL1        0.0867
     16 N           3.9514   -2.5808   20.6870 N.3     1  UNL1       -0.2688
     17 C           4.5458   -3.1734   21.9302 C.3     1  UNL1        0.0867
     18 C           3.9465   -2.9507   19.2333 C.3     1  UNL1        0.1043
     19 C           4.8761   -2.2594   18.2804 C.3     1  UNL1        0.1544
     20 O           4.3838   -1.8324   16.9293 O.3     1  UNL1       -0.3805
     21 H           4.1648   -2.6167   16.4023 H       1  UNL1        0.2105
     22 C           4.0039    1.2988   35.9390 C.3     1  UNL1        0.0977
     23 C           2.7565    1.8279   36.5827 C.3     1  UNL1        0.0524
     24 C           2.9425    3.4875   39.0748 C.3     1  UNL1        0.0331
     25 C           2.8495    2.6577   37.8287 C.3     1  UNL1        0.1820
     26 C           2.6904    1.4217   38.6637 C.2     1  UNL1        0.2640
     27 O           3.8302    0.9357   39.5089 O.2     1  UNL1       -0.2713
     28 N           1.3913    0.6719   38.6534 N.am    1  UNL1       -0.1956
     29 O           1.2321   -0.5640   39.4884 O.3     1  UNL1       -0.2951
     30 H           0.6432    0.9908   38.0987 H       1  UNL1        0.1823
     31 H           2.0563   -0.7376   39.9696 H       1  UNL1        0.2414
     32 S           3.0087    3.8936   36.9938 S.O2    1  UNL1       -0.0034
     33 C           3.1678    5.1295   36.1589 C.3     1  UNL1        0.1765
     34 O           1.7012    3.6052   36.3176 O.2     1  UNL1       -0.1726
     35 O           4.3162    4.1820   37.6700 O.2     1  UNL1       -0.1726
@<TRIPOS>BOND
     1    25    24    1
     2    25    23    1
     3    23    22    1
     4    22     1    1
     5     1     2    1
     6     2     3    1
     7     3     4   ar
     8     4     5   ar
     9     5    10    1
    10    10    11    3
    11    11    12    1
    12    12    13    3
    13    13    14    1
    14    14    15    1
    15    15    16    1
    16    16    18    1
    17    18    19    1
    18    19    20    1
    19    16    17    1
    20     5     6   ar
    21     6     7   ar
    22     7     8   am
    23     8     9    2
    24    25    26    1
    25    26    27    2
    26    26    28   am
    27    28    29    1
    28    25    32    1
    29    32    33    1
    30    32    34    2
    31    32    35    2
    32     8     1   am
    33     7     3   ar
    34    17    14    1
    35    20    21    1
    36    28    30    1
    37    29    31    1
@<TRIPOS>MOLECULE
*****
 35 37 0 0 0
SMALL
GASTEIGER

@<TRIPOS>ATOM
      1 N           2.7787    1.7142   34.0463 N.am    1  UNL1       -0.2560
      2 C           3.7254    0.6259   33.6344 C.3     1  UNL1        0.1394
      3 C           3.5894    0.4292   32.1536 C.ar    1  UNL1        0.0662
      4 C           4.0904   -0.3650   30.9838 C.ar    1  UNL1        0.0247
      5 C           3.3694    0.1108   29.7576 C.ar    1  UNL1        0.0614
      6 C           2.4227    1.1990   30.1695 C.ar    1  UNL1        0.0922
      7 N           2.5587    1.3958   31.6503 N.ar    1  UNL1       -0.2624
      8 C           2.0576    2.1899   32.8200 C.2     1  UNL1        0.3234
      9 O           1.0180    3.2702   32.7719 O.2     1  UNL1       -0.2490
     10 C           3.5613   -0.4101   28.3641 C.1     1  UNL1       -0.0497
     11 C           3.7532   -0.9311   26.9706 C.1     1  UNL1       -0.0095
     12 C           3.9450   -1.4521   25.5771 C.1     1  UNL1       -0.0138
     13 C           4.1369   -1.9731   24.1836 C.1     1  UNL1       -0.0761
     14 C           4.3288   -2.4940   22.7903 C.3     1  UNL1        0.0969
     15 C           3.9313   -2.0300   21.4202 C.3     1  UNL1        0.0867
     16 N           4.6001   -3.2308   20.8196 N.3     1  UNL1       -0.2688
     17 C           4.9975   -3.6948   22.1895 C.3     1  UNL1        0.0867
     18 C           4.7920   -3.7518   19.4261 C.3     1  UNL1        0.1043
     19 C           5.5135   -2.9203   18.4073 C.3     1  UNL1        0.1544
     20 O           4.7601   -2.3264   17.2542 O.3     1  UNL1       -0.3805
     21 H           4.4329   -3.0373   16.6812 H       1  UNL1        0.2105
     22 C           2.5868    2.2351   35.4397 C.3     1  UNL1        0.0977
     23 C           3.3984    1.6730   36.5691 C.3     1  UNL1        0.0524
     24 C           3.6050    3.1723   39.1593 C.3     1  UNL1        0.0331
     25 C           3.5018    2.4226   37.8641 C.3     1  UNL1        0.1820
     26 C           2.3367    1.6482   38.4053 C.2     1  UNL1        0.2640
     27 O           0.9813    2.2864   38.4796 O.2     1  UNL1       -0.2713
     28 N           2.5270    0.2355   38.8723 N.am    1  UNL1       -0.1956
     29 O           1.3620   -0.5389   39.4136 O.3     1  UNL1       -0.2951
     30 H           3.4166   -0.1834   38.8236 H       1  UNL1        0.1823
     31 H           0.5668    0.0161   39.3920 H       1  UNL1        0.2414
     32 S           4.6668    3.1970   37.3230 S.O2    1  UNL1       -0.0034
     33 C           5.8318    3.9716   36.7818 C.3     1  UNL1        0.1765
     34 O           3.9161    4.4775   37.5396 O.2     1  UNL1       -0.1726
     35 O           5.4174    1.9167   37.1064 O.2     1  UNL1       -0.1726
@<TRIPOS>BOND
     1    25    24    1
     2    25    23    1
     3    23    22    1
     4    22     1    1
     5     1     2    1
     6     2     3    1
     7     3     4   ar
     8     4     5   ar
     9     5    10    1
    10    10    11    3
    11    11    12    1
    12    12    13    3
    13    13    14    1
    14    14    15    1
    15    15    16    1
    16    16    18    1
    17    18    19    1
    18    19    20    1
    19    16    17    1
    20     5     6   ar
    21     6     7   ar
    22     7     8   am
    23     8     9    2
    24    25    26    1
    25    26    27    2
    26    26    28   am
    27    28    29    1
    28    25    32    1
    29    32    33    1
    30    32    34    2
    31    32    35    2
    32     8     1   am
    33     7     3   ar
    34    17    14    1
    35    20    21    1
    36    28    30    1
    37    29    31    1
@<TRIPOS>MOLECULE
*****
 35 37 0 0 0
SMALL
GASTEIGER

@<TRIPOS>ATOM
      1 N           4.6144   -1.1242   29.6644 N.am    1  UNL1       -0.2560
      2 C           3.4231   -0.7317   30.4873 C.3     1  UNL1        0.1394
      3 C           2.4421   -0.0445   29.5843 C.ar    1  UNL1        0.0662
      4 C           1.0996    0.6227   29.5347 C.ar    1  UNL1        0.0247
      5 C           0.8547    1.0672   28.1232 C.ar    1  UNL1        0.0614
      6 C           2.0459    0.6747   27.3003 C.ar    1  UNL1        0.0922
      7 N           3.0269   -0.0124   28.2033 N.ar    1  UNL1       -0.2624
      8 C           4.3694   -0.6797   28.2528 C.2     1  UNL1        0.3234
      9 O           5.3031   -0.8692   27.0943 O.2     1  UNL1       -0.2490
     10 C          -0.3668    1.7792   27.6224 C.1     1  UNL1       -0.0497
     11 C          -1.5884    2.4913   27.1216 C.1     1  UNL1       -0.0095
     12 C          -2.8100    3.2033   26.6209 C.1     1  UNL1       -0.0138
     13 C          -4.0316    3.9154   26.1201 C.1     1  UNL1       -0.0761
     14 C          -5.2531    4.6274   25.6193 C.3     1  UNL1        0.0969
     15 C          -6.1876    4.4436   24.4604 C.3     1  UNL1        0.0867
     16 N          -6.9806    5.6343   24.9111 N.3     1  UNL1       -0.2688
     17 C          -6.0462    5.8181   26.0699 C.3     1  UNL1        0.0867
     18 C          -8.2022    6.3464   24.4103 C.3     1  UNL1        0.1043
     19 C          -9.5668    5.8461   24.7813 C.3     1  UNL1        0.1544
     20 O         -10.7869    6.4823   24.1841 O.3     1  UNL1       -0.3805
     21 H         -10.8595    7.3980   24.4958 H       1  UNL1        0.2105
     22 C           5.8358   -1.8362   30.1652 C.3     1  UNL1        0.0977
     23 C           5.9546   -2.1909   31.6179 C.3     1  UNL1        0.0524
     24 C           8.6593   -2.3586   32.9048 C.3     1  UNL1        0.0331
     25 C           7.3069   -2.2747   32.2613 C.3     1  UNL1        0.1820
     26 C           7.3908   -3.7271   31.8958 C.2     1  UNL1        0.2640
     27 O           8.4257   -4.1954   30.9161 O.2     1  UNL1       -0.2713
     28 N           6.4399   -4.7112   32.5100 N.am    1  UNL1       -0.1956
     29 O           6.5238   -6.1636   32.1445 O.3     1  UNL1       -0.2951
     30 H           5.7607   -4.4039   33.1530 H       1  UNL1        0.1823
     31 H           7.2409   -6.2951   31.5047 H       1  UNL1        0.2414
     32 S           7.2231   -0.8224   32.6268 S.O2    1  UNL1       -0.0034
     33 C           7.1394    0.6300   32.9923 C.3     1  UNL1        0.1765
     34 O           8.4675   -0.5512   31.8343 O.2     1  UNL1       -0.1726
     35 O           5.9789   -1.0936   33.4193 O.2     1  UNL1       -0.1726
@<TRIPOS>BOND
     1    25    24    1
     2    25    23    1
     3    23    22    1
     4    22     1    1
     5     1     2    1
     6     2     3    1
     7     3     4   ar
     8     4     5   ar
     9     5    10    1
    10    10    11    3
    11    11    12    1
    12    12    13    3
    13    13    14    1
    14    14    15    1
    15    15    16    1
    16    16    18    1
    17    18    19    1
    18    19    20    1
    19    16    17    1
    20     5     6   ar
    21     6     7   ar
    22     7     8   am
    23     8     9    2
    24    25    26    1
    25    26    27    2
    26    26    28   am
    27    28    29    1
    28    25    32    1
    29    32    33    1
    30    32    34    2
    31    32    35    2
    32     8     1   am
    33     7     3   ar
    34    17    14    1
    35    20    21    1
    36    28    30    1
    37    29    31    1
@<TRIPOS>MOLECULE
*****
 35 37 0 0 0
SMALL
GASTEIGER

@<TRIPOS>ATOM
      1 N           4.5695   -1.9631   22.7172 N.am    1  UNL1       -0.2560
      2 C           3.5814   -1.0666   23.4028 C.3     1  UNL1        0.1394
      3 C           3.9013   -1.0589   24.8683 C.ar    1  UNL1        0.0662
      4 C           3.4884   -0.5001   26.1976 C.ar    1  UNL1        0.0247
      5 C           4.4190   -1.0466   27.2394 C.ar    1  UNL1        0.0614
      6 C           5.4071   -1.9431   26.5539 C.ar    1  UNL1        0.0922
      7 N           5.0872   -1.9507   25.0884 N.ar    1  UNL1       -0.2624
      8 C           5.5001   -2.5096   23.7591 C.2     1  UNL1        0.3234
      9 O           6.6431   -3.4497   23.5145 O.2     1  UNL1       -0.2490
     10 C           4.3701   -0.7488   28.7087 C.1     1  UNL1       -0.0497
     11 C           4.3213   -0.4510   30.1780 C.1     1  UNL1       -0.0095
     12 C           4.2724   -0.1533   31.6474 C.1     1  UNL1       -0.0138
     13 C           4.2236    0.1445   33.1168 C.1     1  UNL1       -0.0761
     14 C           4.1747    0.4423   34.5860 C.3     1  UNL1        0.0969
     15 C           3.6312    1.5615   35.4240 C.3     1  UNL1        0.0867
     16 N           4.1056    0.8634   36.6640 N.3     1  UNL1       -0.2688
     17 C           4.6491   -0.2558   35.8261 C.3     1  UNL1        0.0867
     18 C           4.0568    1.1611   38.1334 C.3     1  UNL1        0.1043
     19 C           2.7455    1.1327   38.8611 C.3     1  UNL1        0.1544
     20 O           2.4498    0.0274   39.8311 O.3     1  UNL1       -0.3805
     21 H           2.3884   -0.8144   39.3532 H       1  UNL1        0.2105
     22 C           4.6184   -2.2609   21.2480 C.3     1  UNL1        0.0977
     23 C           3.3988   -2.0536   20.3996 C.3     1  UNL1        0.0524
     24 C           3.6385   -0.6992   17.7336 C.3     1  UNL1        0.0331
     25 C           3.5186   -1.3764   19.0667 C.3     1  UNL1        0.1820
     26 C           4.2581   -2.5655   18.5290 C.2     1  UNL1        0.2640
     27 O           5.5187   -2.3707   17.7397 O.2     1  UNL1       -0.2713
     28 N           3.7371   -3.9494   18.7806 N.am    1  UNL1       -0.1956
     29 O           4.4766   -5.1385   18.2430 O.3     1  UNL1       -0.2951
     30 H           2.9097   -4.0772   19.2987 H       1  UNL1        0.1823
     31 H           5.2631   -4.8392   17.7607 H       1  UNL1        0.2414
     32 S           2.7791   -0.1872   19.6042 S.O2    1  UNL1       -0.0034
     33 C           2.0395    1.0019   20.1418 C.3     1  UNL1        0.1765
     34 O           1.6418   -1.0775   20.0090 O.2     1  UNL1       -0.1726
     35 O           3.9164    0.7031   19.1995 O.2     1  UNL1       -0.1726
@<TRIPOS>BOND
     1    25    24    1
     2    25    23    1
     3    23    22    1
     4    22     1    1
     5     1     2    1
     6     2     3    1
     7     3     4   ar
     8     4     5   ar
     9     5    10    1
    10    10    11    3
    11    11    12    1
    12    12    13    3
    13    13    14    1
    14    14    15    1
    15    15    16    1
    16    16    18    1
    17    18    19    1
    18    19    20    1
    19    16    17    1
    20     5     6   ar
    21     6     7   ar
    22     7     8   am
    23     8     9    2
    24    25    26    1
    25    26    27    2
    26    26    28   am
    27    28    29    1
    28    25    32    1
    29    32    33    1
    30    32    34    2
    31    32    35    2
    32     8     1   am
    33     7     3   ar
    34    17    14    1
    35    20    21    1
    36    28    30    1
    37    29    31    1
@<TRIPOS>MOLECULE
*****
 35 37 0 0 0
SMALL
GASTEIGER

@<TRIPOS>ATOM
      1 N           3.5307   -1.2476   22.9876 N.am    1  UNL1       -0.2560
      2 C           2.6959   -0.1152   23.5079 C.3     1  UNL1        0.1394
      3 C           2.8865   -0.0433   24.9940 C.ar    1  UNL1        0.0662
      4 C           2.4884    0.7010   26.2340 C.ar    1  UNL1        0.0247
      5 C           3.1951    0.0729   27.3985 C.ar    1  UNL1        0.0614
      6 C           4.0299   -1.0595   26.8783 C.ar    1  UNL1        0.0922
      7 N           3.8392   -1.1314   25.3922 N.ar    1  UNL1       -0.2624
      8 C           4.2373   -1.8757   24.1523 C.2     1  UNL1        0.3234
      9 O           5.1771   -3.0431   24.0882 O.2     1  UNL1       -0.2490
     10 C           3.0860    0.5020   28.8317 C.1     1  UNL1       -0.0497
     11 C           2.9770    0.9310   30.2649 C.1     1  UNL1       -0.0095
     12 C           2.8680    1.3601   31.6981 C.1     1  UNL1       -0.0138
     13 C           2.7589    1.7893   33.1313 C.1     1  UNL1       -0.0761
     14 C           2.6499    2.2184   34.5644 C.3     1  UNL1        0.0969
     15 C           3.1329    1.6716   35.8751 C.3     1  UNL1        0.0867
     16 N           2.4957    2.8253   36.5912 N.3     1  UNL1       -0.2688
     17 C           2.0127    3.3722   35.2806 C.3     1  UNL1        0.0867
     18 C           2.3866    3.2545   38.0243 C.3     1  UNL1        0.1043
     19 C           1.4557    2.5341   38.9541 C.3     1  UNL1        0.1544
     20 O          -0.0279    2.6971   38.8051 O.3     1  UNL1       -0.3805
     21 H          -0.2744    3.6134   39.0064 H       1  UNL1        0.2105
     22 C           3.6397   -1.6767   21.5545 C.3     1  UNL1        0.0977
     23 C           4.9309   -1.4940   20.8131 C.3     1  UNL1        0.0524
     24 C           5.4937   -3.1225   18.3572 C.3     1  UNL1        0.0331
     25 C           5.2123   -2.3082   19.5852 C.3     1  UNL1        0.1820
     26 C           5.4774   -3.5100   20.4428 C.2     1  UNL1        0.2640
     27 O           4.6321   -4.7399   20.2923 O.2     1  UNL1       -0.2713
     28 N           6.5877   -3.4818   21.4508 N.am    1  UNL1       -0.1956
     29 O           6.8528   -4.6836   22.3084 O.3     1  UNL1       -0.2951
     30 H           7.1425   -2.6745   21.5496 H       1  UNL1        0.1823
     31 H           6.2216   -5.3855   22.0855 H       1  UNL1        0.2414
     32 S           4.9472   -1.1065   18.7275 S.O2    1  UNL1       -0.0034
     33 C           4.6820    0.0952   17.8698 C.3     1  UNL1        0.1765
     34 O           3.8339   -1.8416   18.0417 O.2     1  UNL1       -0.1726
     35 O           6.0604   -0.3714   19.4132 O.2     1  UNL1       -0.1726
@<TRIPOS>BOND
     1    25    24    1
     2    25    23    1
     3    23    22    1
     4    22     1    1
     5     1     2    1
     6     2     3    1
     7     3     4   ar
     8     4     5   ar
     9     5    10    1
    10    10    11    3
    11    11    12    1
    12    12    13    3
    13    13    14    1
    14    14    15    1
    15    15    16    1
    16    16    18    1
    17    18    19    1
    18    19    20    1
    19    16    17    1
    20     5     6   ar
    21     6     7   ar
    22     7     8   am
    23     8     9    2
    24    25    26    1
    25    26    27    2
    26    26    28   am
    27    28    29    1
    28    25    32    1
    29    32    33    1
    30    32    34    2
    31    32    35    2
    32     8     1   am
    33     7     3   ar
    34    17    14    1
    35    20    21    1
    36    28    30    1
    37    29    31    1
@<TRIPOS>MOLECULE
*****
 35 37 0 0 0
SMALL
GASTEIGER

@<TRIPOS>ATOM
      1 N           5.1247   -1.2074   28.9523 N.am    1  UNL1       -0.2560
      2 C           4.6910   -0.8333   27.5659 C.3     1  UNL1        0.1394
      3 C           3.3753   -0.1202   27.6684 C.ar    1  UNL1        0.0662
      4 C           2.2941    0.5517   26.8749 C.ar    1  UNL1        0.0247
      5 C           1.2465    1.0336   27.8342 C.ar    1  UNL1        0.0614
      6 C           1.6802    0.6595   29.2206 C.ar    1  UNL1        0.0922
      7 N           2.9959   -0.0535   29.1181 N.ar    1  UNL1       -0.2624
      8 C           4.0770   -0.7254   29.9116 C.2     1  UNL1        0.3234
      9 O           4.1056   -0.8871   31.4026 O.2     1  UNL1       -0.2490
     10 C          -0.0136    1.7617   27.4710 C.1     1  UNL1       -0.0497
     11 C          -1.2737    2.4899   27.1077 C.1     1  UNL1       -0.0095
     12 C          -2.5339    3.2180   26.7444 C.1     1  UNL1       -0.0138
     13 C          -3.7940    3.9460   26.3810 C.1     1  UNL1       -0.0761
     14 C          -5.0541    4.6739   26.0177 C.3     1  UNL1        0.0969
     15 C          -6.0418    4.5879   24.8919 C.3     1  UNL1        0.0867
     16 N          -6.8362    5.7035   25.5038 N.3     1  UNL1       -0.2688
     17 C          -5.8485    5.7896   26.6294 C.3     1  UNL1        0.0867
     18 C          -8.0963    6.4316   25.1404 C.3     1  UNL1        0.1043
     19 C          -9.3113    5.6616   24.7150 C.3     1  UNL1        0.1544
     20 O         -10.6772    6.1343   25.1159 O.3     1  UNL1       -0.3805
     21 H         -10.7724    6.0686   26.0789 H       1  UNL1        0.2105
     22 C           6.3848   -1.9354   29.3155 C.3     1  UNL1        0.0977
     23 C           6.3127   -3.3214   29.8849 C.3     1  UNL1        0.0524
     24 C           8.5125   -4.3315   31.6569 C.3     1  UNL1        0.0331
     25 C           7.4126   -3.8264   30.7708 C.3     1  UNL1        0.1820
     26 C           6.8319   -3.0653   31.9256 C.2     1  UNL1        0.2640
     27 O           7.6397   -1.9979   32.6025 O.2     1  UNL1       -0.2713
     28 N           5.4435   -3.3715   32.4036 N.am    1  UNL1       -0.1956
     29 O           4.8628   -2.6104   33.5584 O.3     1  UNL1       -0.2951
     30 H           4.9133   -4.0721   31.9593 H       1  UNL1        0.1823
     31 H           5.5108   -1.9628   33.8773 H       1  UNL1        0.2414
     32 S           7.9933   -4.5876   29.6161 S.O2    1  UNL1       -0.0034
     33 C           8.5741   -5.3487   28.4614 C.3     1  UNL1        0.1765
     34 O           9.2548   -3.7827   29.7201 O.2     1  UNL1       -0.1726
     35 O           6.7319   -5.3924   29.5122 O.2     1  UNL1       -0.1726
@<TRIPOS>BOND
     1    25    24    1
     2    25    23    1
     3    23    22    1
     4    22     1    1
     5     1     2    1
     6     2     3    1
     7     3     4   ar
     8     4     5   ar
     9     5    10    1
    10    10    11    3
    11    11    12    1
    12    12    13    3
    13    13    14    1
    14    14    15    1
    15    15    16    1
    16    16    18    1
    17    18    19    1
    18    19    20    1
    19    16    17    1
    20     5     6   ar
    21     6     7   ar
    22     7     8   am
    23     8     9    2
    24    25    26    1
    25    26    27    2
    26    26    28   am
    27    28    29    1
    28    25    32    1
    29    32    33    1
    30    32    34    2
    31    32    35    2
    32     8     1   am
    33     7     3   ar
    34    17    14    1
    35    20    21    1
    36    28    30    1
    37    29    31    1
@<TRIPOS>MOLECULE
*****
 35 37 0 0 0
SMALL
GASTEIGER

@<TRIPOS>ATOM
      1 N           3.0553    1.9341   34.0993 N.am    1  UNL1       -0.2560
      2 C           1.9850    1.8918   33.0492 C.3     1  UNL1        0.1394
      3 C           2.5730    1.2801   31.8123 C.ar    1  UNL1        0.0662
      4 C           2.2749    0.8759   30.3988 C.ar    1  UNL1        0.0247
      5 C           3.5245    0.2904   29.8109 C.ar    1  UNL1        0.0614
      6 C           4.5949    0.3327   30.8609 C.ar    1  UNL1        0.0922
      7 N           4.0068    0.9444   32.0978 N.ar    1  UNL1       -0.2624
      8 C           4.3049    1.3485   33.5113 C.2     1  UNL1        0.3234
      9 O           5.6214    1.1943   34.2134 O.2     1  UNL1       -0.2490
     10 C           3.6770   -0.2437   28.4175 C.1     1  UNL1       -0.0497
     11 C           3.8295   -0.7777   27.0241 C.1     1  UNL1       -0.0095
     12 C           3.9820   -1.3117   25.6306 C.1     1  UNL1       -0.0138
     13 C           4.1345   -1.8457   24.2372 C.1     1  UNL1       -0.0761
     14 C           4.2871   -2.3796   22.8439 C.3     1  UNL1        0.0969
     15 C           4.9222   -3.5958   22.2376 C.3     1  UNL1        0.0867
     16 N           4.5028   -3.1347   20.8733 N.3     1  UNL1       -0.2688
     17 C           3.8676   -1.9185   21.4795 C.3     1  UNL1        0.0867
     18 C           4.6553   -3.6686   19.4798 C.3     1  UNL1        0.1043
     19 C           4.0068   -4.9664   19.0988 C.3     1  UNL1        0.1544
     20 O           3.4258   -5.8542   20.1591 O.3     1  UNL1       -0.3805
     21 H           4.1378   -6.1889   20.7264 H       1  UNL1        0.2105
     22 C           2.9029    2.4681   35.4926 C.3     1  UNL1        0.0977
     23 C           2.7823    1.5212   36.6498 C.3     1  UNL1        0.0524
     24 C           4.0762    2.1863   39.2734 C.3     1  UNL1        0.0331
     25 C           3.4292    1.8538   37.9616 C.3     1  UNL1        0.1820
     26 C           4.7400    1.3381   37.4459 C.2     1  UNL1        0.2640
     27 O           5.9301    2.2486   37.3791 O.2     1  UNL1       -0.2713
     28 N           4.8606   -0.0881   36.9970 N.am    1  UNL1       -0.1956
     29 O           6.1714   -0.6037   36.4813 O.3     1  UNL1       -0.2951
     30 H           4.0794   -0.6856   37.0408 H       1  UNL1        0.1823
     31 H           6.8304    0.1076   36.5047 H       1  UNL1        0.2414
     32 S           2.1185    2.3694   38.4773 S.O2    1  UNL1       -0.0034
     33 C           0.8078    2.8852   38.9931 C.3     1  UNL1        0.1765
     34 O           2.7215    3.7324   38.6469 O.2     1  UNL1       -0.1726
     35 O           1.5155    1.0066   38.3078 O.2     1  UNL1       -0.1726
@<TRIPOS>BOND
     1    25    24    1
     2    25    23    1
     3    23    22    1
     4    22     1    1
     5     1     2    1
     6     2     3    1
     7     3     4   ar
     8     4     5   ar
     9     5    10    1
    10    10    11    3
    11    11    12    1
    12    12    13    3
    13    13    14    1
    14    14    15    1
    15    15    16    1
    16    16    18    1
    17    18    19    1
    18    19    20    1
    19    16    17    1
    20     5     6   ar
    21     6     7   ar
    22     7     8   am
    23     8     9    2
    24    25    26    1
    25    26    27    2
    26    26    28   am
    27    28    29    1
    28    25    32    1
    29    32    33    1
    30    32    34    2
    31    32    35    2
    32     8     1   am
    33     7     3   ar
    34    17    14    1
    35    20    21    1
    36    28    30    1
    37    29    31    1
