@<TRIPOS>MOLECULE
*****
 21 23 0 0 0
SMALL
GASTEIGER

@<TRIPOS>ATOM
      1 C          -3.5750  -19.7092   21.1942 C.ar    1  UNL1        0.1387
      2 C          -4.5441  -20.5380   20.4044 C.ar    1  UNL1        0.0369
      3 C          -6.0188  -20.2989   20.5387 C.ar    1  UNL1        0.0031
      4 C          -6.5244  -19.2310   21.4628 C.ar    1  UNL1        0.0002
      5 C          -7.9991  -18.9920   21.5971 C.ar    1  UNL1        0.0001
      6 C          -8.5047  -17.9241   22.5212 C.ar    1  UNL1        0.0027
      7 C          -7.5356  -17.0952   23.3110 C.ar    1  UNL1        0.0001
      8 C          -6.0608  -17.3343   23.1767 C.ar    1  UNL1        0.0001
      9 C          -5.5553  -18.4022   22.2525 C.ar    1  UNL1        0.0030
     10 C          -4.0805  -18.6413   22.1182 C.ar    1  UNL1        0.0369
     11 C          -9.9794  -17.6850   22.6555 C.ar    1  UNL1        0.0321
     12 C         -10.8249  -18.6389   23.4464 C.ar    1  UNL1        0.1001
     13 N         -12.2996  -18.3998   23.5807 N.ar    1  UNL1       -0.2422
     14 C         -12.9289  -17.2069   22.9241 C.ar    1  UNL1        0.1001
     15 C         -12.0835  -16.2532   22.1332 C.ar    1  UNL1        0.0348
     16 C         -10.6087  -16.4922   21.9989 C.ar    1  UNL1        0.0446
     17 N          -9.7633  -15.5385   21.2080 N.pl3   1  UNL1       -0.3569
     18 H         -10.1763  -14.7556   20.7771 H       1  UNL1        0.1424
     19 H          -8.7954  -15.6954   21.1199 H       1  UNL1        0.1424
     20 C          -1.2223  -18.8958   20.4504 C.3     1  UNL1        0.2525
     21 O          -2.1002  -19.9482   21.0598 O.3     1  UNL1       -0.4714
@<TRIPOS>BOND
     1    20    21    1
     2    21     1    1
     3     1     2   ar
     4     2     3   ar
     5     3     4   ar
     6     4     5   ar
     7     5     6   ar
     8     6    11    1
     9    11    12   ar
    10    12    13   ar
    11    13    14   ar
    12    14    15   ar
    13    15    16   ar
    14    16    17    1
    15     6     7   ar
    16     7     8   ar
    17     8     9   ar
    18     9    10   ar
    19    10     1   ar
    20     9     4   ar
    21    16    11   ar
    22    17    18    1
    23    17    19    1
@<TRIPOS>MOLECULE
*****
 21 23 0 0 0
SMALL
GASTEIGER

@<TRIPOS>ATOM
      1 C         -12.1566  -17.5893   23.1227 C.ar    1  UNL1        0.1387
      2 C         -11.4788  -16.4748   22.3821 C.ar    1  UNL1        0.0369
      3 C         -10.0449  -16.6149   21.9647 C.ar    1  UNL1        0.0031
      4 C          -9.2887  -17.8694   22.2877 C.ar    1  UNL1        0.0002
      5 C          -7.8548  -18.0094   21.8703 C.ar    1  UNL1        0.0001
      6 C          -7.0987  -19.2639   22.1933 C.ar    1  UNL1        0.0027
      7 C          -7.7765  -20.3785   22.9339 C.ar    1  UNL1        0.0001
      8 C          -9.2104  -20.2385   23.3513 C.ar    1  UNL1        0.0001
      9 C          -9.9665  -18.9839   23.0283 C.ar    1  UNL1        0.0030
     10 C         -11.4005  -18.8438   23.4457 C.ar    1  UNL1        0.0369
     11 C          -5.6648  -19.4039   21.7758 C.ar    1  UNL1        0.0321
     12 C          -4.5889  -18.6865   22.5359 C.ar    1  UNL1        0.1001
     13 N          -3.1550  -18.8265   22.1185 N.ar    1  UNL1       -0.2422
     14 C          -2.7970  -19.6840   20.9409 C.ar    1  UNL1        0.1001
     15 C          -3.8729  -20.4014   20.1809 C.ar    1  UNL1        0.0348
     16 C          -5.3068  -20.2614   20.5983 C.ar    1  UNL1        0.0446
     17 N          -6.3827  -20.9788   19.8383 N.pl3   1  UNL1       -0.3569
     18 H          -6.1477  -21.5416   19.0655 H       1  UNL1        0.1424
     19 H          -7.3238  -20.8869   20.1123 H       1  UNL1        0.1424
     20 C         -14.1373  -18.3052   24.6439 C.3     1  UNL1        0.2525
     21 O         -13.5905  -17.4493   23.5401 O.3     1  UNL1       -0.4714
@<TRIPOS>BOND
     1    20    21    1
     2    21     1    1
     3     1     2   ar
     4     2     3   ar
     5     3     4   ar
     6     4     5   ar
     7     5     6   ar
     8     6    11    1
     9    11    12   ar
    10    12    13   ar
    11    13    14   ar
    12    14    15   ar
    13    15    16   ar
    14    16    17    1
    15     6     7   ar
    16     7     8   ar
    17     8     9   ar
    18     9    10   ar
    19    10     1   ar
    20     9     4   ar
    21    16    11   ar
    22    17    18    1
    23    17    19    1
@<TRIPOS>MOLECULE
*****
 21 23 0 0 0
SMALL
GASTEIGER

@<TRIPOS>ATOM
      1 C         -12.3726  -17.8140   23.2223 C.ar    1  UNL1        0.1387
      2 C         -11.8248  -16.7862   22.2771 C.ar    1  UNL1        0.0369
      3 C         -10.4278  -16.9224   21.7483 C.ar    1  UNL1        0.0031
      4 C          -9.5784  -18.0865   22.1647 C.ar    1  UNL1        0.0002
      5 C          -8.1814  -18.2228   21.6359 C.ar    1  UNL1        0.0001
      6 C          -7.3320  -19.3869   22.0523 C.ar    1  UNL1        0.0027
      7 C          -7.8798  -20.4148   22.9975 C.ar    1  UNL1        0.0001
      8 C          -9.2768  -20.2786   23.5263 C.ar    1  UNL1        0.0001
      9 C         -10.1262  -19.1144   23.1099 C.ar    1  UNL1        0.0030
     10 C         -11.5232  -18.9781   23.6387 C.ar    1  UNL1        0.0369
     11 C          -5.9350  -19.5231   21.5234 C.ar    1  UNL1        0.0321
     12 C          -5.6241  -20.5595   20.4844 C.ar    1  UNL1        0.1001
     13 N          -4.2270  -20.6957   19.9556 N.ar    1  UNL1       -0.2422
     14 C          -3.1408  -19.7957   20.4658 C.ar    1  UNL1        0.1001
     15 C          -3.4518  -18.7594   21.5048 C.ar    1  UNL1        0.0348
     16 C          -4.8488  -18.6232   22.0336 C.ar    1  UNL1        0.0446
     17 N          -5.1598  -17.5869   23.0725 N.pl3   1  UNL1       -0.3569
     18 H          -4.4469  -16.9962   23.4074 H       1  UNL1        0.1424
     19 H          -6.0767  -17.4975   23.4196 H       1  UNL1        0.1424
     20 C         -14.1637  -18.3778   25.0178 C.3     1  UNL1        0.2525
     21 O         -13.7696  -17.6778   23.7511 O.3     1  UNL1       -0.4714
@<TRIPOS>BOND
     1    20    21    1
     2    21     1    1
     3     1     2   ar
     4     2     3   ar
     5     3     4   ar
     6     4     5   ar
     7     5     6   ar
     8     6    11    1
     9    11    12   ar
    10    12    13   ar
    11    13    14   ar
    12    14    15   ar
    13    15    16   ar
    14    16    17    1
    15     6     7   ar
    16     7     8   ar
    17     8     9   ar
    18     9    10   ar
    19    10     1   ar
    20     9     4   ar
    21    16    11   ar
    22    17    18    1
    23    17    19    1
@<TRIPOS>MOLECULE
*****
 21 23 0 0 0
SMALL
GASTEIGER

@<TRIPOS>ATOM
      1 C         -10.6395  -18.1341   23.7564 C.ar    1  UNL1        0.1387
      2 C          -9.9687  -16.7925   23.7505 C.ar    1  UNL1        0.0369
      3 C          -8.5427  -16.6689   23.3017 C.ar    1  UNL1        0.0031
      4 C          -7.7876  -17.8868   22.8588 C.ar    1  UNL1        0.0002
      5 C          -6.3616  -17.7632   22.4100 C.ar    1  UNL1        0.0001
      6 C          -5.6065  -18.9811   21.9671 C.ar    1  UNL1        0.0027
      7 C          -6.2773  -20.3228   21.9729 C.ar    1  UNL1        0.0001
      8 C          -7.7032  -20.4465   22.4217 C.ar    1  UNL1        0.0001
      9 C          -8.4584  -19.2284   22.8646 C.ar    1  UNL1        0.0030
     10 C          -9.8843  -19.3521   23.3134 C.ar    1  UNL1        0.0369
     11 C          -4.1805  -18.8575   21.5183 C.ar    1  UNL1        0.0321
     12 C          -3.0672  -18.9732   22.5170 C.ar    1  UNL1        0.1001
     13 N          -1.6413  -18.8496   22.0682 N.ar    1  UNL1       -0.2422
     14 C          -1.3287  -18.6102   20.6207 C.ar    1  UNL1        0.1001
     15 C          -2.4419  -18.4945   19.6222 C.ar    1  UNL1        0.0348
     16 C          -3.8679  -18.6181   20.0709 C.ar    1  UNL1        0.0446
     17 N          -4.9811  -18.5024   19.0724 N.pl3   1  UNL1       -0.3569
     18 H          -4.7759  -18.3452   18.1224 H       1  UNL1        0.1424
     19 H          -5.9170  -18.5835   19.3669 H       1  UNL1        0.1424
     20 C         -13.1770  -17.8079   23.3041 C.3     1  UNL1        0.2525
     21 O         -12.0654  -18.2578   24.2051 O.3     1  UNL1       -0.4714
@<TRIPOS>BOND
     1    20    21    1
     2    21     1    1
     3     1     2   ar
     4     2     3   ar
     5     3     4   ar
     6     4     5   ar
     7     5     6   ar
     8     6    11    1
     9    11    12   ar
    10    12    13   ar
    11    13    14   ar
    12    14    15   ar
    13    15    16   ar
    14    16    17    1
    15     6     7   ar
    16     7     8   ar
    17     8     9   ar
    18     9    10   ar
    19    10     1   ar
    20     9     4   ar
    21    16    11   ar
    22    17    18    1
    23    17    19    1
@<TRIPOS>MOLECULE
*****
 21 23 0 0 0
SMALL
GASTEIGER

@<TRIPOS>ATOM
      1 C         -10.4534   -5.2987   17.7287 C.ar    1  UNL1        0.1387
      2 C         -10.9166   -4.5395   18.9365 C.ar    1  UNL1        0.0369
      3 C         -12.3013   -4.7542   19.4719 C.ar    1  UNL1        0.0031
      4 C         -13.2227   -5.7283   18.7994 C.ar    1  UNL1        0.0002
      5 C         -14.6073   -5.9430   19.3348 C.ar    1  UNL1        0.0001
      6 C         -15.5287   -6.9171   18.6624 C.ar    1  UNL1        0.0027
      7 C         -15.0655   -7.6764   17.4545 C.ar    1  UNL1        0.0001
      8 C         -13.6809   -7.4616   16.9191 C.ar    1  UNL1        0.0001
      9 C         -12.7595   -6.4875   17.5916 C.ar    1  UNL1        0.0030
     10 C         -11.3748   -6.2727   17.0562 C.ar    1  UNL1        0.0369
     11 C         -16.9134   -7.1318   19.1978 C.ar    1  UNL1        0.0321
     12 C         -18.0001   -6.1465   18.8840 C.ar    1  UNL1        0.1001
     13 N         -19.3847   -6.3613   19.4193 N.ar    1  UNL1       -0.2422
     14 C         -19.6827   -7.5614   20.2686 C.ar    1  UNL1        0.1001
     15 C         -18.5960   -8.5466   20.5824 C.ar    1  UNL1        0.0348
     16 C         -17.2114   -8.3318   20.0470 C.ar    1  UNL1        0.0446
     17 N         -16.1247   -9.3170   20.3608 N.pl3   1  UNL1       -0.3569
     18 H         -16.3203  -10.1047   20.9181 H       1  UNL1        0.1424
     19 H         -15.2160   -9.1761   20.0094 H       1  UNL1        0.1424
     20 C          -8.7970   -3.9500   16.2498 C.3     1  UNL1        0.2525
     21 O          -9.0688   -5.0839   17.1933 O.3     1  UNL1       -0.4714
@<TRIPOS>BOND
     1    20    21    1
     2    21     1    1
     3     1     2   ar
     4     2     3   ar
     5     3     4   ar
     6     4     5   ar
     7     5     6   ar
     8     6    11    1
     9    11    12   ar
    10    12    13   ar
    11    13    14   ar
    12    14    15   ar
    13    15    16   ar
    14    16    17    1
    15     6     7   ar
    16     7     8   ar
    17     8     9   ar
    18     9    10   ar
    19    10     1   ar
    20     9     4   ar
    21    16    11   ar
    22    17    18    1
    23    17    19    1
@<TRIPOS>MOLECULE
*****
 21 23 0 0 0
SMALL
GASTEIGER

@<TRIPOS>ATOM
      1 C         -18.3088   -9.4776   18.3961 C.ar    1  UNL1        0.1387
      2 C         -17.9312   -9.1600   19.8126 C.ar    1  UNL1        0.0369
      3 C         -16.6860   -8.3740   20.0986 C.ar    1  UNL1        0.0031
      4 C         -15.8184   -7.9058   18.9682 C.ar    1  UNL1        0.0002
      5 C         -14.5732   -7.1199   19.2542 C.ar    1  UNL1        0.0001
      6 C         -13.7056   -6.6516   18.1237 C.ar    1  UNL1        0.0027
      7 C         -14.0832   -6.9693   16.7072 C.ar    1  UNL1        0.0001
      8 C         -15.3284   -7.7553   16.4211 C.ar    1  UNL1        0.0001
      9 C         -16.1960   -8.2235   17.5517 C.ar    1  UNL1        0.0030
     10 C         -17.4412   -9.0094   17.2657 C.ar    1  UNL1        0.0369
     11 C         -12.4604   -5.8657   18.4097 C.ar    1  UNL1        0.0321
     12 C         -12.5443   -4.3864   18.6436 C.ar    1  UNL1        0.1001
     13 N         -11.2991   -3.6005   18.9296 N.ar    1  UNL1       -0.2422
     14 C          -9.9700   -4.2939   18.9818 C.ar    1  UNL1        0.1001
     15 C          -9.8861   -5.7731   18.7479 C.ar    1  UNL1        0.0348
     16 C         -11.1313   -6.5590   18.4619 C.ar    1  UNL1        0.0446
     17 N         -11.0474   -8.0383   18.2280 N.pl3   1  UNL1       -0.3569
     18 H         -10.1750   -8.4934   18.2622 H       1  UNL1        0.1424
     19 H         -11.8647   -8.5541   18.0403 H       1  UNL1        0.1424
     20 C         -19.9382  -10.5706   16.6931 C.3     1  UNL1        0.2525
     21 O         -19.5540  -10.2636   18.1101 O.3     1  UNL1       -0.4714
@<TRIPOS>BOND
     1    20    21    1
     2    21     1    1
     3     1     2   ar
     4     2     3   ar
     5     3     4   ar
     6     4     5   ar
     7     5     6   ar
     8     6    11    1
     9    11    12   ar
    10    12    13   ar
    11    13    14   ar
    12    14    15   ar
    13    15    16   ar
    14    16    17    1
    15     6     7   ar
    16     7     8   ar
    17     8     9   ar
    18     9    10   ar
    19    10     1   ar
    20     9     4   ar
    21    16    11   ar
    22    17    18    1
    23    17    19    1
@<TRIPOS>MOLECULE
*****
 21 23 0 0 0
SMALL
GASTEIGER

@<TRIPOS>ATOM
      1 C         -12.5352   -2.5855   19.0342 C.ar    1  UNL1        0.1387
      2 C         -13.3184   -2.8935   20.2758 C.ar    1  UNL1        0.0369
      3 C         -14.2598   -4.0611   20.2984 C.ar    1  UNL1        0.0031
      4 C         -14.4181   -4.9206   19.0794 C.ar    1  UNL1        0.0002
      5 C         -15.3595   -6.0882   19.1021 C.ar    1  UNL1        0.0001
      6 C         -15.5177   -6.9478   17.8830 C.ar    1  UNL1        0.0027
      7 C         -14.7345   -6.6398   16.6413 C.ar    1  UNL1        0.0001
      8 C         -13.7931   -5.4723   16.6187 C.ar    1  UNL1        0.0001
      9 C         -13.6349   -4.6127   17.8378 C.ar    1  UNL1        0.0030
     10 C         -12.6934   -3.4451   17.8152 C.ar    1  UNL1        0.0369
     11 C         -16.4592   -8.1153   17.9057 C.ar    1  UNL1        0.0321
     12 C         -17.8669   -7.9533   17.4135 C.ar    1  UNL1        0.1001
     13 N         -18.8083   -9.1209   17.4361 N.ar    1  UNL1       -0.2422
     14 C         -18.3421  -10.4504   17.9509 C.ar    1  UNL1        0.1001
     15 C         -16.9344  -10.6124   18.4431 C.ar    1  UNL1        0.0348
     16 C         -15.9930   -9.4448   18.4204 C.ar    1  UNL1        0.0446
     17 N         -14.5853   -9.6068   18.9126 N.pl3   1  UNL1       -0.3569
     18 H         -14.2793  -10.4794   19.2505 H       1  UNL1        0.1424
     19 H         -13.9674   -8.8405   18.8977 H       1  UNL1        0.1424
     20 C         -11.0948   -0.8821   17.7024 C.3     1  UNL1        0.2525
     21 O         -11.5937   -1.4180   19.0115 O.3     1  UNL1       -0.4714
@<TRIPOS>BOND
     1    20    21    1
     2    21     1    1
     3     1     2   ar
     4     2     3   ar
     5     3     4   ar
     6     4     5   ar
     7     5     6   ar
     8     6    11    1
     9    11    12   ar
    10    12    13   ar
    11    13    14   ar
    12    14    15   ar
    13    15    16   ar
    14    16    17    1
    15     6     7   ar
    16     7     8   ar
    17     8     9   ar
    18     9    10   ar
    19    10     1   ar
    20     9     4   ar
    21    16    11   ar
    22    17    18    1
    23    17    19    1
@<TRIPOS>MOLECULE
*****
 21 23 0 0 0
SMALL
GASTEIGER

@<TRIPOS>ATOM
      1 C         -14.8836    0.6270   18.9909 C.ar    1  UNL1        0.1387
      2 C         -15.5765   -0.5268   19.6530 C.ar    1  UNL1        0.0369
      3 C         -14.9265   -1.8785   19.6770 C.ar    1  UNL1        0.0031
      4 C         -13.5836   -2.0763   19.0387 C.ar    1  UNL1        0.0002
      5 C         -12.9336   -3.4279   19.0627 C.ar    1  UNL1        0.0001
      6 C         -11.5907   -3.6257   18.4245 C.ar    1  UNL1        0.0027
      7 C         -10.8976   -2.4718   17.7623 C.ar    1  UNL1        0.0001
      8 C         -11.5476   -1.1202   17.7384 C.ar    1  UNL1        0.0001
      9 C         -12.8907   -0.9224   18.3766 C.ar    1  UNL1        0.0030
     10 C         -13.5406    0.4292   18.3527 C.ar    1  UNL1        0.0369
     11 C         -10.9407   -4.9774   18.4484 C.ar    1  UNL1        0.0321
     12 C          -9.7595   -5.2259   19.3390 C.ar    1  UNL1        0.1001
     13 N          -9.1095   -6.5775   19.3629 N.ar    1  UNL1       -0.2422
     14 C          -9.6407   -7.6806   18.4962 C.ar    1  UNL1        0.1001
     15 C         -10.8218   -7.4321   17.6057 C.ar    1  UNL1        0.0348
     16 C         -11.4718   -6.0804   17.5817 C.ar    1  UNL1        0.0446
     17 N         -12.6529   -5.8319   16.6912 N.pl3   1  UNL1       -0.3569
     18 H         -13.0015   -6.5558   16.1224 H       1  UNL1        0.1424
     19 H         -13.0795   -4.9447   16.6755 H       1  UNL1        0.1424
     20 C         -16.8436    2.1685   18.2616 C.3     1  UNL1        0.2525
     21 O         -15.5336    1.9787   18.9670 O.3     1  UNL1       -0.4714
@<TRIPOS>BOND
     1    20    21    1
     2    21     1    1
     3     1     2   ar
     4     2     3   ar
     5     3     4   ar
     6     4     5   ar
     7     5     6   ar
     8     6    11    1
     9    11    12   ar
    10    12    13   ar
    11    13    14   ar
    12    14    15   ar
    13    15    16   ar
    14    16    17    1
    15     6     7   ar
    16     7     8   ar
    17     8     9   ar
    18     9    10   ar
    19    10     1   ar
    20     9     4   ar
    21    16    11   ar
    22    17    18    1
    23    17    19    1
@<TRIPOS>MOLECULE
*****
 21 23 0 0 0
SMALL
GASTEIGER

@<TRIPOS>ATOM
      1 C         -11.5411   -5.1063   19.0661 C.ar    1  UNL1        0.1387
      2 C         -12.6000   -4.1841   19.5935 C.ar    1  UNL1        0.0369
      3 C         -14.0260   -4.6437   19.6670 C.ar    1  UNL1        0.0031
      4 C         -14.3930   -6.0254   19.2132 C.ar    1  UNL1        0.0002
      5 C         -15.8189   -6.4850   19.2868 C.ar    1  UNL1        0.0001
      6 C         -16.1860   -7.8668   18.8330 C.ar    1  UNL1        0.0027
      7 C         -15.1270   -8.7891   18.3056 C.ar    1  UNL1        0.0001
      8 C         -13.7010   -8.3295   18.2320 C.ar    1  UNL1        0.0001
      9 C         -13.3340   -6.9476   18.6858 C.ar    1  UNL1        0.0030
     10 C         -11.9081   -6.4880   18.6123 C.ar    1  UNL1        0.0369
     11 C         -17.6119   -8.3264   18.9065 C.ar    1  UNL1        0.0321
     12 C         -18.2113   -8.7030   20.2291 C.ar    1  UNL1        0.1001
     13 N         -19.6372   -9.1625   20.3026 N.ar    1  UNL1       -0.2422
     14 C         -20.4639   -9.2455   19.0537 C.ar    1  UNL1        0.1001
     15 C         -19.8645   -8.8689   17.7312 C.ar    1  UNL1        0.0348
     16 C         -18.4385   -8.4094   17.6576 C.ar    1  UNL1        0.0446
     17 N         -17.8392   -8.0328   16.3352 N.pl3   1  UNL1       -0.3569
     18 H         -18.3817   -8.0873   15.5155 H       1  UNL1        0.1424
     19 H         -16.9033   -7.7311   16.2869 H       1  UNL1        0.1424
     20 C          -9.5022   -4.3130   17.6648 C.3     1  UNL1        0.2525
     21 O         -10.1151   -4.6467   18.9925 O.3     1  UNL1       -0.4714
@<TRIPOS>BOND
     1    20    21    1
     2    21     1    1
     3     1     2   ar
     4     2     3   ar
     5     3     4   ar
     6     4     5   ar
     7     5     6   ar
     8     6    11    1
     9    11    12   ar
    10    12    13   ar
    11    13    14   ar
    12    14    15   ar
    13    15    16   ar
    14    16    17    1
    15     6     7   ar
    16     7     8   ar
    17     8     9   ar
    18     9    10   ar
    19    10     1   ar
    20     9     4   ar
    21    16    11   ar
    22    17    18    1
    23    17    19    1
