@<TRIPOS>MOLECULE
*****
 20 22 0 0 0
SMALL
GASTEIGER

@<TRIPOS>ATOM
      1 C          -9.5457  -19.2760   20.2261 C.2     1  UNL1        0.1818
      2 O          -9.7943  -20.0480   18.9644 O.2     1  UNL1       -0.2903
      3 C          -8.1503  -19.1400   20.7596 C.2     1  UNL1        0.0183
      4 C          -7.8812  -18.2527   21.9386 C.2     1  UNL1        0.0005
      5 C          -6.4858  -18.1166   22.4720 C.2     1  UNL1        0.0186
      6 C          -5.3596  -18.8680   21.8263 C.2     1  UNL1        0.0777
      7 N          -3.8918  -18.9317   22.1290 N.2     1  UNL1       -0.2442
      8 C          -3.2538  -19.8584   21.1370 C.2     1  UNL1        0.0985
      9 C          -4.3272  -20.3675   20.2212 C.2     1  UNL1        0.0182
     10 C          -5.6287  -19.7554   20.6472 C.2     1  UNL1        0.0015
     11 C          -7.0240  -19.8913   20.1138 C.3     1  UNL1        0.0571
     12 C         -10.6923  -18.6399   20.9546 C.3     1  UNL1        0.0977
     13 C         -11.8500  -18.2769   21.8367 C.3     1  UNL1        0.0233
     14 C         -12.2732  -16.8793   21.4943 C.3     1  UNL1        0.0189
     15 C         -11.3772  -16.3784   20.4006 C.3     1  UNL1        0.0689
     16 N         -10.4001  -17.4665   20.0670 N.3     1  UNL1       -0.2938
     17 H          -9.4480  -17.1385   20.2291 H       1  UNL1        0.1235
     18 C         -10.7448  -19.9463   21.6899 C.3     1  UNL1        0.0219
     19 C          -9.7402  -20.4127   24.0400 C.3     1  UNL1        0.0001
     20 C         -10.8856  -19.9613   23.1832 C.3     1  UNL1        0.0018
@<TRIPOS>BOND
     1    19    20    1
     2    20    18    1
     3    18    12    1
     4    12     1    1
     5     1     2    2
     6     1     3    1
     7     3     4    2
     8     4     5    1
     9     5     6    2
    10     6     7    1
    11     7     8    2
    12     8     9    1
    13     9    10    2
    14    10    11    1
    15    12    13    1
    16    13    14    1
    17    14    15    1
    18    15    16    1
    19    16    12    1
    20    11     3    1
    21    10     6    1
    22    16    17    1
@<TRIPOS>MOLECULE
*****
 20 22 0 0 0
SMALL
GASTEIGER

@<TRIPOS>ATOM
      1 C         -10.6600  -16.8431   22.6133 C.2     1  UNL1        0.1818
      2 O         -11.7880  -15.8597   22.5114 O.2     1  UNL1       -0.2903
      3 C          -9.4236  -16.4889   23.3853 C.2     1  UNL1        0.0183
      4 C          -8.0971  -16.4240   22.6882 C.2     1  UNL1        0.0005
      5 C          -6.8606  -16.0698   23.4601 C.2     1  UNL1        0.0186
      6 C          -6.9509  -15.7805   24.9292 C.2     1  UNL1        0.0777
      7 N          -5.9116  -15.4071   25.9443 N.2     1  UNL1       -0.2442
      8 C          -6.5959  -15.2413   27.2688 C.2     1  UNL1        0.0985
      9 C          -8.0581  -15.5122   27.0722 C.2     1  UNL1        0.0182
     10 C          -8.2775  -15.8454   25.6263 C.2     1  UNL1        0.0015
     11 C          -9.5138  -16.1996   24.8543 C.3     1  UNL1        0.0571
     12 C         -10.7683  -18.1808   21.9434 C.3     1  UNL1        0.0977
     13 C         -10.9629  -19.6175   21.5581 C.3     1  UNL1        0.0233
     14 C         -10.6479  -19.7525   20.0979 C.3     1  UNL1        0.0189
     15 C         -10.2587  -18.3994   19.5806 C.3     1  UNL1        0.0689
     16 N         -10.3331  -17.4280   20.7211 N.3     1  UNL1       -0.2938
     17 H         -11.0089  -16.6945   20.5074 H       1  UNL1        0.1235
     18 C         -11.1809  -18.6539   23.3057 C.3     1  UNL1        0.0219
     19 C          -9.8997  -20.0024   25.1196 C.3     1  UNL1        0.0001
     20 C         -10.6688  -19.9617   23.8324 C.3     1  UNL1        0.0018
@<TRIPOS>BOND
     1    19    20    1
     2    20    18    1
     3    18    12    1
     4    12     1    1
     5     1     2    2
     6     1     3    1
     7     3     4    2
     8     4     5    1
     9     5     6    2
    10     6     7    1
    11     7     8    2
    12     8     9    1
    13     9    10    2
    14    10    11    1
    15    12    13    1
    16    13    14    1
    17    14    15    1
    18    15    16    1
    19    16    12    1
    20    11     3    1
    21    10     6    1
    22    16    17    1
@<TRIPOS>MOLECULE
*****
 20 22 0 0 0
SMALL
GASTEIGER

@<TRIPOS>ATOM
      1 C         -10.5529  -18.9603   21.4909 C.2     1  UNL1        0.1818
      2 O         -10.7145  -19.9864   20.4088 O.2     1  UNL1       -0.2903
      3 C          -9.1817  -18.5040   21.8932 C.2     1  UNL1        0.0183
      4 C          -8.9855  -17.1306   22.4631 C.2     1  UNL1        0.0005
      5 C          -7.6143  -16.6743   22.8653 C.2     1  UNL1        0.0186
      6 C          -6.4394  -17.5916   22.6975 C.2     1  UNL1        0.0777
      7 N          -4.9807  -17.4203   23.0024 N.2     1  UNL1       -0.2442
      8 C          -4.2755  -18.6880   22.6208 C.2     1  UNL1        0.0985
      9 C          -5.2983  -19.6428   22.0802 C.2     1  UNL1        0.0182
     10 C          -6.6357  -18.9652   22.1276 C.2     1  UNL1        0.0015
     11 C          -8.0068  -19.4214   21.7254 C.3     1  UNL1        0.0571
     12 C         -11.7624  -18.3905   22.1709 C.3     1  UNL1        0.0977
     13 C         -13.0331  -17.6995   22.5683 C.3     1  UNL1        0.0233
     14 C         -13.2728  -17.9712   24.0238 C.3     1  UNL1        0.0189
     15 C         -12.1503  -18.8301   24.5260 C.3     1  UNL1        0.0689
     16 N         -11.2168  -19.0893   23.3809 N.3     1  UNL1       -0.2938
     17 H         -11.1563  -20.0919   23.2038 H       1  UNL1        0.1235
     18 C         -12.0552  -17.8109   20.8188 C.3     1  UNL1        0.0219
     19 C         -11.5885  -15.7058   19.3693 C.3     1  UNL1        0.0001
     20 C         -12.1047  -16.3230   20.6353 C.3     1  UNL1        0.0018
@<TRIPOS>BOND
     1    19    20    1
     2    20    18    1
     3    18    12    1
     4    12     1    1
     5     1     2    2
     6     1     3    1
     7     3     4    2
     8     4     5    1
     9     5     6    2
    10     6     7    1
    11     7     8    2
    12     8     9    1
    13     9    10    2
    14    10    11    1
    15    12    13    1
    16    13    14    1
    17    14    15    1
    18    15    16    1
    19    16    12    1
    20    11     3    1
    21    10     6    1
    22    16    17    1
@<TRIPOS>MOLECULE
*****
 20 22 0 0 0
SMALL
GASTEIGER

@<TRIPOS>ATOM
      1 C         -10.0085  -17.9428   22.7972 C.2     1  UNL1        0.1818
      2 O          -9.6061  -19.0606   21.8816 O.2     1  UNL1       -0.2903
      3 C          -8.9612  -17.1699   23.5427 C.2     1  UNL1        0.0183
      4 C          -7.7312  -16.6926   22.8291 C.2     1  UNL1        0.0005
      5 C          -6.6839  -15.9197   23.5746 C.2     1  UNL1        0.0186
      6 C          -6.8666  -15.6241   25.0338 C.2     1  UNL1        0.0777
      7 N          -6.0118  -14.8899   26.0238 N.2     1  UNL1       -0.2442
      8 C          -6.7135  -14.9134   27.3494 C.2     1  UNL1        0.0985
      9 C          -8.0020  -15.6621   27.1785 C.2     1  UNL1        0.0182
     10 C          -8.0966  -16.1014   25.7474 C.2     1  UNL1        0.0015
     11 C          -9.1439  -16.8743   25.0019 C.3     1  UNL1        0.0571
     12 C         -11.4583  -17.5977   22.9674 C.3     1  UNL1        0.0977
     13 C         -12.8516  -17.0449   22.9097 C.3     1  UNL1        0.0233
     14 C         -13.6803  -17.7694   23.9286 C.3     1  UNL1        0.0189
     15 C         -12.7993  -18.7700   24.6160 C.3     1  UNL1        0.0689
     16 N         -11.4261  -18.6640   24.0220 N.3     1  UNL1       -0.2938
     17 H         -11.1596  -19.5557   23.6046 H       1  UNL1        0.1235
     18 C         -11.1876  -16.6037   21.8772 C.3     1  UNL1        0.0219
     19 C         -11.6008  -15.7515   19.4579 C.3     1  UNL1        0.0001
     20 C         -11.8168  -16.7811   20.5272 C.3     1  UNL1        0.0018
@<TRIPOS>BOND
     1    19    20    1
     2    20    18    1
     3    18    12    1
     4    12     1    1
     5     1     2    2
     6     1     3    1
     7     3     4    2
     8     4     5    1
     9     5     6    2
    10     6     7    1
    11     7     8    2
    12     8     9    1
    13     9    10    2
    14    10    11    1
    15    12    13    1
    16    13    14    1
    17    14    15    1
    18    15    16    1
    19    16    12    1
    20    11     3    1
    21    10     6    1
    22    16    17    1
@<TRIPOS>MOLECULE
*****
 20 22 0 0 0
SMALL
GASTEIGER

@<TRIPOS>ATOM
      1 C          -8.7021  -18.1575   21.8671 C.2     1  UNL1        0.1818
      2 O          -9.4795  -17.4309   20.8100 O.2     1  UNL1       -0.2903
      3 C          -7.3617  -18.7466   21.5407 C.2     1  UNL1        0.0183
      4 C          -7.2348  -19.7582   20.4405 C.2     1  UNL1        0.0005
      5 C          -5.8945  -20.3473   20.1141 C.2     1  UNL1        0.0186
      6 C          -4.6810  -19.9247   20.8880 C.2     1  UNL1        0.0777
      7 N          -3.2395  -20.3287   20.7937 N.2     1  UNL1       -0.2442
      8 C          -2.4755  -19.5667   21.8357 C.2     1  UNL1        0.0985
      9 C          -3.4448  -18.6918   22.5739 C.2     1  UNL1        0.0182
     10 C          -4.8079  -18.9130   21.9882 C.2     1  UNL1        0.0015
     11 C          -6.1482  -18.3240   22.3145 C.3     1  UNL1        0.0571
     12 C          -9.2649  -18.2951   23.2506 C.3     1  UNL1        0.0977
     13 C          -9.8266  -18.1192   24.6304 C.3     1  UNL1        0.0233
     14 C         -10.0613  -19.4815   25.2124 C.3     1  UNL1        0.0189
     15 C          -9.6447  -20.4994   24.1925 C.3     1  UNL1        0.0689
     16 N          -9.1524  -19.7662   22.9800 N.3     1  UNL1       -0.2938
     17 H          -9.7219  -20.0138   22.1708 H       1  UNL1        0.1235
     18 C          -9.2596  -16.7952   23.2320 C.3     1  UNL1        0.0219
     19 C          -7.4607  -15.1814   24.1857 C.3     1  UNL1        0.0001
     20 C          -8.6793  -16.0328   24.3861 C.3     1  UNL1        0.0018
@<TRIPOS>BOND
     1    19    20    1
     2    20    18    1
     3    18    12    1
     4    12     1    1
     5     1     2    2
     6     1     3    1
     7     3     4    2
     8     4     5    1
     9     5     6    2
    10     6     7    1
    11     7     8    2
    12     8     9    1
    13     9    10    2
    14    10    11    1
    15    12    13    1
    16    13    14    1
    17    14    15    1
    18    15    16    1
    19    16    12    1
    20    11     3    1
    21    10     6    1
    22    16    17    1
@<TRIPOS>MOLECULE
*****
 20 22 0 0 0
SMALL
GASTEIGER

@<TRIPOS>ATOM
      1 C          -8.8437  -17.2722   22.6292 C.2     1  UNL1        0.1818
      2 O          -8.4898  -16.1248   23.5281 O.2     1  UNL1       -0.2903
      3 C          -7.7585  -18.1030   22.0108 C.2     1  UNL1        0.0183
      4 C          -8.0830  -19.0491   20.8931 C.2     1  UNL1        0.0005
      5 C          -6.9979  -19.8799   20.2747 C.2     1  UNL1        0.0186
      6 C          -5.5882  -19.7645   20.7743 C.2     1  UNL1        0.0777
      7 N          -4.3186  -20.4497   20.3636 N.2     1  UNL1       -0.2442
      8 C          -3.2095  -19.9270   21.2276 C.2     1  UNL1        0.0985
      9 C          -3.7935  -18.9188   22.1722 C.2     1  UNL1        0.0182
     10 C          -5.2637  -18.8184   21.8921 C.2     1  UNL1        0.0015
     11 C          -6.3489  -17.9876   22.5103 C.3     1  UNL1        0.0571
     12 C         -10.2827  -17.5889   22.3485 C.3     1  UNL1        0.0977
     13 C         -11.7075  -18.0582   22.3414 C.3     1  UNL1        0.0233
     14 C         -12.3559  -17.5522   21.0871 C.3     1  UNL1        0.0189
     15 C         -11.3319  -16.7703   20.3189 C.3     1  UNL1        0.0689
     16 N         -10.0507  -16.7929   21.0985 N.3     1  UNL1       -0.2938
     17 H          -9.7758  -15.8409   21.3404 H       1  UNL1        0.1235
     18 C         -10.2140  -18.3187   23.6572 C.3     1  UNL1        0.0219
     19 C          -9.4428  -20.7452   24.1748 C.3     1  UNL1        0.0001
     20 C         -10.5024  -19.7897   23.7117 C.3     1  UNL1        0.0018
@<TRIPOS>BOND
     1    19    20    1
     2    20    18    1
     3    18    12    1
     4    12     1    1
     5     1     2    2
     6     1     3    1
     7     3     4    2
     8     4     5    1
     9     5     6    2
    10     6     7    1
    11     7     8    2
    12     8     9    1
    13     9    10    2
    14    10    11    1
    15    12    13    1
    16    13    14    1
    17    14    15    1
    18    15    16    1
    19    16    12    1
    20    11     3    1
    21    10     6    1
    22    16    17    1
@<TRIPOS>MOLECULE
*****
 20 22 0 0 0
SMALL
GASTEIGER

@<TRIPOS>ATOM
      1 C          -7.6555  -16.1509   22.7076 C.2     1  UNL1        0.1818
      2 O          -7.7867  -15.1030   21.6425 O.2     1  UNL1       -0.2903
      3 C          -8.8786  -16.8380   23.2385 C.2     1  UNL1        0.0183
      4 C          -8.7556  -17.8309   24.3560 C.2     1  UNL1        0.0005
      5 C          -9.9788  -18.5181   24.8869 C.2     1  UNL1        0.0186
      6 C         -11.3249  -18.2122   24.3003 C.2     1  UNL1        0.0777
      7 N         -12.6977  -18.7283   24.6150 N.2     1  UNL1       -0.2442
      8 C         -13.6692  -18.0543   23.6920 C.2     1  UNL1        0.0985
      9 C         -12.8968  -17.1217   22.8068 C.2     1  UNL1        0.0182
     10 C         -11.4480  -17.2192   23.1827 C.2     1  UNL1        0.0015
     11 C         -10.2248  -16.5321   22.6519 C.3     1  UNL1        0.0571
     12 C          -6.3011  -16.5118   23.2419 C.3     1  UNL1        0.0977
     13 C          -4.9855  -16.6180   23.9546 C.3     1  UNL1        0.0233
     14 C          -4.2701  -17.8272   23.4295 C.3     1  UNL1        0.0189
     15 C          -5.1434  -18.4684   22.3922 C.3     1  UNL1        0.0689
     16 N          -6.3987  -17.6555   22.2762 N.3     1  UNL1       -0.2938
     17 H          -7.2076  -18.2334   22.5046 H       1  UNL1        0.1235
     18 C          -6.4867  -15.2927   24.0958 C.3     1  UNL1        0.0219
     19 C          -7.0637  -15.4544   26.6239 C.3     1  UNL1        0.0001
     20 C          -6.0477  -15.3078   25.5301 C.3     1  UNL1        0.0018
@<TRIPOS>BOND
     1    19    20    1
     2    20    18    1
     3    18    12    1
     4    12     1    1
     5     1     2    2
     6     1     3    1
     7     3     4    2
     8     4     5    1
     9     5     6    2
    10     6     7    1
    11     7     8    2
    12     8     9    1
    13     9    10    2
    14    10    11    1
    15    12    13    1
    16    13    14    1
    17    14    15    1
    18    15    16    1
    19    16    12    1
    20    11     3    1
    21    10     6    1
    22    16    17    1
@<TRIPOS>MOLECULE
*****
 20 22 0 0 0
SMALL
GASTEIGER

@<TRIPOS>ATOM
      1 C          -8.5498  -17.6923   22.0885 C.2     1  UNL1        0.1818
      2 O          -9.6211  -17.4187   21.0751 O.2     1  UNL1       -0.2903
      3 C          -7.3112  -18.4378   21.6880 C.2     1  UNL1        0.0183
      4 C          -7.3821  -19.4939   20.6253 C.2     1  UNL1        0.0005
      5 C          -6.1436  -20.2394   20.2248 C.2     1  UNL1        0.0186
      6 C          -4.8341  -19.9286   20.8871 C.2     1  UNL1        0.0777
      7 N          -3.4569  -20.4936   20.7025 N.2     1  UNL1       -0.2442
      8 C          -2.5349  -19.7867   21.6511 C.2     1  UNL1        0.0985
      9 C          -3.3422  -18.7847   22.4221 C.2     1  UNL1        0.0182
     10 C          -4.7632  -18.8724   21.9499 C.2     1  UNL1        0.0015
     11 C          -6.0017  -18.1270   22.3504 C.3     1  UNL1        0.0571
     12 C          -8.7168  -17.2206   23.5026 C.3     1  UNL1        0.0977
     13 C          -9.0230  -17.0268   24.9582 C.3     1  UNL1        0.0233
     14 C          -8.5118  -15.6762   25.3635 C.3     1  UNL1        0.0189
     15 C          -7.8897  -15.0352   24.1585 C.3     1  UNL1        0.0689
     16 N          -8.0164  -15.9897   23.0084 N.3     1  UNL1       -0.2938
     17 H          -7.0902  -16.2353   22.6587 H       1  UNL1        0.1235
     18 C          -9.3824  -18.5502   23.7012 C.3     1  UNL1        0.0219
     19 C         -11.9708  -18.4369   23.5092 C.3     1  UNL1        0.0001
     20 C         -10.7369  -18.6227   24.3415 C.3     1  UNL1        0.0018
@<TRIPOS>BOND
     1    19    20    1
     2    20    18    1
     3    18    12    1
     4    12     1    1
     5     1     2    2
     6     1     3    1
     7     3     4    2
     8     4     5    1
     9     5     6    2
    10     6     7    1
    11     7     8    2
    12     8     9    1
    13     9    10    2
    14    10    11    1
    15    12    13    1
    16    13    14    1
    17    14    15    1
    18    15    16    1
    19    16    12    1
    20    11     3    1
    21    10     6    1
    22    16    17    1
@<TRIPOS>MOLECULE
*****
 20 22 0 0 0
SMALL
GASTEIGER

@<TRIPOS>ATOM
      1 C          -8.9298  -17.5980   21.9785 C.2     1  UNL1        0.1818
      2 O          -9.0574  -16.1324   21.6862 O.2     1  UNL1       -0.2903
      3 C          -7.6764  -18.3314   21.6026 C.2     1  UNL1        0.0183
      4 C          -7.6955  -19.3198   20.4746 C.2     1  UNL1        0.0005
      5 C          -6.4421  -20.0533   20.0987 C.2     1  UNL1        0.0186
      6 C          -5.1697  -19.7982   20.8509 C.2     1  UNL1        0.0777
      7 N          -3.7887  -20.3663   20.7090 N.2     1  UNL1       -0.2442
      8 C          -2.9162  -19.7290   21.7494 C.2     1  UNL1        0.0985
      9 C          -3.7579  -18.7670   22.5343 C.2     1  UNL1        0.0182
     10 C          -5.1507  -18.8097   21.9790 C.2     1  UNL1        0.0015
     11 C          -6.4040  -18.0764   22.3549 C.3     1  UNL1        0.0571
     12 C         -10.0554  -18.3303   22.6467 C.3     1  UNL1        0.0977
     13 C         -11.3168  -19.0444   23.0330 C.3     1  UNL1        0.0233
     14 C         -11.2118  -19.4203   24.4812 C.3     1  UNL1        0.0189
     15 C          -9.8856  -18.9387   24.9901 C.3     1  UNL1        0.0689
     16 N          -9.1708  -18.2650   23.8564 N.3     1  UNL1       -0.2938
     17 H          -8.2908  -18.7450   23.6680 H       1  UNL1        0.1235
     18 C         -10.7047  -18.2426   21.2974 C.3     1  UNL1        0.0219
     19 C         -12.4028  -16.3877   20.6446 C.3     1  UNL1        0.0001
     20 C         -12.1203  -17.7617   21.1761 C.3     1  UNL1        0.0018
@<TRIPOS>BOND
     1    19    20    1
     2    20    18    1
     3    18    12    1
     4    12     1    1
     5     1     2    2
     6     1     3    1
     7     3     4    2
     8     4     5    1
     9     5     6    2
    10     6     7    1
    11     7     8    2
    12     8     9    1
    13     9    10    2
    14    10    11    1
    15    12    13    1
    16    13    14    1
    17    14    15    1
    18    15    16    1
    19    16    12    1
    20    11     3    1
    21    10     6    1
    22    16    17    1
