@<TRIPOS>MOLECULE
*****
 27 30 0 0 0
SMALL
GASTEIGER

@<TRIPOS>ATOM
      1 C           6.2987   -2.6120   20.4862 C.2     1  UNL1       -0.0137
      2 C           7.3560   -3.6447   20.2301 C.2     1  UNL1        0.0001
      3 C           7.8891   -4.4695   21.3639 C.2     1  UNL1        0.0498
      4 C           7.3648   -4.2615   22.7538 C.2     1  UNL1        0.2321
      5 N           7.6964   -4.9194   24.0605 N.2     1  UNL1       -0.0308
      6 C           6.8440   -4.2933   25.1242 C.2     1  UNL1        0.3751
      7 N           5.9856   -3.2485   24.4749 N.2     1  UNL1       -0.0347
      8 C           6.3075   -3.2289   23.0100 C.2     1  UNL1        0.2178
      9 C           5.7744   -2.4041   21.8761 C.3     1  UNL1        0.1040
     10 C           4.5168   -2.2121   18.6383 C.ar    1  UNL1        0.0711
     11 C           3.9836   -1.3873   17.5045 C.ar    1  UNL1        0.0038
     12 C           4.6994   -0.1377   17.0847 C.ar    1  UNL1       -0.0001
     13 C           5.9482    0.2872   17.7988 C.ar    1  UNL1       -0.0000
     14 C           6.4813   -0.5376   18.9326 C.ar    1  UNL1       -0.0004
     15 C           5.7656   -1.7872   19.3523 C.ar    1  UNL1        0.0004
     16 F           3.0853   -4.7113   19.4779 F       1  UNL1       -0.1659
     17 C           3.8010   -3.4617   19.0581 C.3     1  UNL1        0.4186
     18 F           2.8587   -2.6427   19.8894 F       1  UNL1       -0.1659
     19 F           4.7433   -4.2807   18.2267 F       1  UNL1       -0.1659
     20 C           6.8490   -4.6495   26.5813 C.2     1  UNL1        0.0913
     21 C           6.7081   -3.5734   27.6168 C.2     1  UNL1       -0.0185
     22 C           6.7132   -3.9295   29.0739 C.3     1  UNL1        0.0223
     23 C           6.9305   -5.3519   29.4977 C.3     1  UNL1        0.0043
     24 C           6.9356   -5.7080   30.9547 C.3     1  UNL1        0.0003
     25 C           6.7233   -4.6416   31.9882 C.3     1  UNL1        0.0000
     26 C           6.5059   -3.2192   31.5644 C.3     1  UNL1        0.0003
     27 C           6.5009   -2.8632   30.1073 C.3     1  UNL1        0.0043
@<TRIPOS>BOND
     1    16    17    1
     2    17    18    1
     3    17    19    1
     4    17    10    1
     5    10    11   ar
     6    11    12   ar
     7    12    13   ar
     8    13    14   ar
     9    14    15   ar
    10    15     1    1
    11     1     2    2
    12     2     3    1
    13     3     4    2
    14     4     5    1
    15     5     6    2
    16     6    20    1
    17    20    21    2
    18    21    22    1
    19    22    23    1
    20    23    24    1
    21    24    25    1
    22    25    26    1
    23    26    27    1
    24     6     7    1
    25     7     8    2
    26     8     9    1
    27    15    10   ar
    28     9     1    1
    29     8     4    1
    30    27    22    1
@<TRIPOS>MOLECULE
*****
 27 30 0 0 0
SMALL
GASTEIGER

@<TRIPOS>ATOM
      1 C           3.6224   -1.8042   20.7808 C.2     1  UNL1       -0.0137
      2 C           4.1832   -2.9648   20.0137 C.2     1  UNL1        0.0001
      3 C           5.0966   -3.9416   20.6928 C.2     1  UNL1        0.0498
      4 C           5.4494   -3.7579   22.1391 C.2     1  UNL1        0.2321
      5 N           6.3180   -4.5521   23.0691 N.2     1  UNL1       -0.0308
      6 C           6.2941   -3.8823   24.4110 C.2     1  UNL1        0.3751
      7 N           5.4107   -2.6742   24.3104 N.2     1  UNL1       -0.0347
      8 C           4.8887   -2.5973   22.9063 C.2     1  UNL1        0.2178
      9 C           3.9752   -1.6205   22.2271 C.3     1  UNL1        0.1040
     10 C           3.1883   -0.0584   18.9063 C.ar    1  UNL1        0.0711
     11 C           2.2748    0.9185   18.2272 C.ar    1  UNL1        0.0038
     12 C           0.8819    1.1265   18.7434 C.ar    1  UNL1       -0.0001
     13 C           0.4024    0.3575   19.9388 C.ar    1  UNL1       -0.0000
     14 C           1.3160   -0.6194   20.6179 C.ar    1  UNL1       -0.0004
     15 C           2.7089   -0.8273   20.1017 C.ar    1  UNL1        0.0004
     16 F           5.9742   -0.4743   17.8740 F       1  UNL1       -0.1659
     17 C           4.5813   -0.2664   18.3901 C.3     1  UNL1        0.4186
     18 F           5.1172    0.6095   19.4835 F       1  UNL1       -0.1659
     19 F           4.0454   -1.1422   17.2967 F       1  UNL1       -0.1659
     20 C           7.0252   -4.3402   25.6382 C.2     1  UNL1        0.0913
     21 C           6.8614   -5.7488   26.1270 C.2     1  UNL1       -0.0185
     22 C           7.5924   -6.2068   27.3541 C.3     1  UNL1        0.0223
     23 C           7.2507   -5.6222   28.6926 C.3     1  UNL1        0.0043
     24 C           7.9817   -6.0802   29.9197 C.3     1  UNL1        0.0003
     25 C           9.0545   -7.1227   29.8083 C.3     1  UNL1        0.0000
     26 C           9.3963   -7.7072   28.4698 C.3     1  UNL1        0.0003
     27 C           8.6652   -7.2492   27.2427 C.3     1  UNL1        0.0043
@<TRIPOS>BOND
     1    16    17    1
     2    17    18    1
     3    17    19    1
     4    17    10    1
     5    10    11   ar
     6    11    12   ar
     7    12    13   ar
     8    13    14   ar
     9    14    15   ar
    10    15     1    1
    11     1     2    2
    12     2     3    1
    13     3     4    2
    14     4     5    1
    15     5     6    2
    16     6    20    1
    17    20    21    2
    18    21    22    1
    19    22    23    1
    20    23    24    1
    21    24    25    1
    22    25    26    1
    23    26    27    1
    24     6     7    1
    25     7     8    2
    26     8     9    1
    27    15    10   ar
    28     9     1    1
    29     8     4    1
    30    27    22    1
@<TRIPOS>MOLECULE
*****
 27 30 0 0 0
SMALL
GASTEIGER

@<TRIPOS>ATOM
      1 C           0.4991    2.1466   27.1364 C.2     1  UNL1       -0.0137
      2 C          -0.6026    2.7023   26.2836 C.2     1  UNL1        0.0001
      3 C          -0.6176    2.4324   24.8082 C.2     1  UNL1        0.0498
      4 C           0.4690    1.6068   24.1856 C.2     1  UNL1        0.2321
      5 N           0.7168    1.1770   22.7700 N.2     1  UNL1       -0.0308
      6 C           1.9717    0.3556   22.7480 C.2     1  UNL1        0.3751
      7 N           2.4994    0.2777   24.1500 N.2     1  UNL1       -0.0347
      8 C           1.5706    1.0510   25.0385 C.2     1  UNL1        0.2178
      9 C           1.5857    1.3209   26.5139 C.3     1  UNL1        0.1040
     10 C          -0.0685    1.4141   29.5637 C.ar    1  UNL1        0.0711
     11 C          -0.0534    1.6839   31.0391 C.ar    1  UNL1        0.0038
     12 C           0.5445    2.9561   31.5629 C.ar    1  UNL1       -0.0001
     13 C           1.1272    3.9584   30.6111 C.ar    1  UNL1       -0.0000
     14 C           1.1120    3.6886   29.1356 C.ar    1  UNL1       -0.0004
     15 C           0.5142    2.4164   28.6119 C.ar    1  UNL1        0.0004
     16 F          -1.2641   -1.1302   28.5162 F       1  UNL1       -0.1659
     17 C          -0.6663    0.1419   29.0399 C.3     1  UNL1        0.4186
     18 F           0.6506   -0.5523   29.2233 F       1  UNL1       -0.1659
     19 F          -1.9832    0.8362   28.8566 F       1  UNL1       -0.1659
     20 C           2.5904   -0.2770   21.5367 C.2     1  UNL1        0.0913
     21 C           3.4922   -1.4659   21.6894 C.2     1  UNL1       -0.0185
     22 C           4.1109   -2.0984   20.4782 C.3     1  UNL1        0.0223
     23 C           4.8138   -1.2463   19.4634 C.3     1  UNL1        0.0043
     24 C           5.4324   -1.8788   18.2521 C.3     1  UNL1        0.0003
     25 C           5.3482   -3.3636   18.0557 C.3     1  UNL1        0.0000
     26 C           4.6453   -4.2157   19.0705 C.3     1  UNL1        0.0003
     27 C           4.0266   -3.5831   20.2817 C.3     1  UNL1        0.0043
@<TRIPOS>BOND
     1    16    17    1
     2    17    18    1
     3    17    19    1
     4    17    10    1
     5    10    11   ar
     6    11    12   ar
     7    12    13   ar
     8    13    14   ar
     9    14    15   ar
    10    15     1    1
    11     1     2    2
    12     2     3    1
    13     3     4    2
    14     4     5    1
    15     5     6    2
    16     6    20    1
    17    20    21    2
    18    21    22    1
    19    22    23    1
    20    23    24    1
    21    24    25    1
    22    25    26    1
    23    26    27    1
    24     6     7    1
    25     7     8    2
    26     8     9    1
    27    15    10   ar
    28     9     1    1
    29     8     4    1
    30    27    22    1
@<TRIPOS>MOLECULE
*****
 27 30 0 0 0
SMALL
GASTEIGER

@<TRIPOS>ATOM
      1 C         -10.6508  -18.8162   21.8560 C.2     1  UNL1       -0.0137
      2 C         -10.8667  -19.4774   20.5270 C.2     1  UNL1        0.0001
      3 C          -9.7031  -19.7200   19.6122 C.2     1  UNL1        0.0498
      4 C          -8.3235  -19.3014   20.0262 C.2     1  UNL1        0.2321
      5 N          -6.9937  -19.4091   19.3405 N.2     1  UNL1       -0.0308
      6 C          -5.9559  -18.8144   20.2457 C.2     1  UNL1        0.3751
      7 N          -6.6443  -18.3392   21.4908 N.2     1  UNL1       -0.0347
      8 C          -8.1075  -18.6402   21.3552 C.2     1  UNL1        0.2178
      9 C          -9.2712  -18.3976   22.2700 C.3     1  UNL1        0.1040
     10 C         -11.7700  -19.0652   24.1874 C.ar    1  UNL1        0.0711
     11 C         -12.9336  -18.8226   25.1023 C.ar    1  UNL1        0.0038
     12 C         -14.1417  -18.0884   24.6008 C.ar    1  UNL1       -0.0001
     13 C         -14.1862  -17.5968   23.1843 C.ar    1  UNL1       -0.0000
     14 C         -13.0225  -17.8394   22.2694 C.ar    1  UNL1       -0.0004
     15 C         -11.8145  -18.5736   22.7709 C.ar    1  UNL1        0.0004
     16 F          -9.3538  -20.5335   25.1904 F       1  UNL1       -0.1659
     17 C         -10.5619  -19.7994   24.6889 C.3     1  UNL1        0.4186
     18 F         -10.1858  -18.6108   25.5229 F       1  UNL1       -0.1659
     19 F         -10.9380  -20.9880   23.8548 F       1  UNL1       -0.1659
     20 C          -4.4875  -18.7128   19.9565 C.2     1  UNL1        0.0913
     21 C          -3.6047  -17.8831   20.8409 C.2     1  UNL1       -0.0185
     22 C          -2.1364  -17.7814   20.5519 C.3     1  UNL1        0.0223
     23 C          -1.4101  -16.4930   20.8023 C.3     1  UNL1        0.0043
     24 C           0.0582  -16.3914   20.5132 C.3     1  UNL1        0.0003
     25 C           0.8004  -17.5781   19.9737 C.3     1  UNL1        0.0000
     26 C           0.0741  -18.8664   19.7233 C.3     1  UNL1        0.0003
     27 C          -1.3943  -18.9680   20.0124 C.3     1  UNL1        0.0043
@<TRIPOS>BOND
     1    16    17    1
     2    17    18    1
     3    17    19    1
     4    17    10    1
     5    10    11   ar
     6    11    12   ar
     7    12    13   ar
     8    13    14   ar
     9    14    15   ar
    10    15     1    1
    11     1     2    2
    12     2     3    1
    13     3     4    2
    14     4     5    1
    15     5     6    2
    16     6    20    1
    17    20    21    2
    18    21    22    1
    19    22    23    1
    20    23    24    1
    21    24    25    1
    22    25    26    1
    23    26    27    1
    24     6     7    1
    25     7     8    2
    26     8     9    1
    27    15    10   ar
    28     9     1    1
    29     8     4    1
    30    27    22    1
@<TRIPOS>MOLECULE
*****
 27 30 0 0 0
SMALL
GASTEIGER

@<TRIPOS>ATOM
      1 C           2.4444   -0.4916   19.7986 C.2     1  UNL1       -0.0137
      2 C           3.0269    0.4945   18.8300 C.2     1  UNL1        0.0001
      3 C           2.2821    1.7549   18.5039 C.2     1  UNL1        0.0498
      4 C           0.9547    2.0293   19.1463 C.2     1  UNL1        0.2321
      5 N          -0.0032    3.1769   19.0206 N.2     1  UNL1       -0.0308
      6 C          -1.1777    2.9000   19.9115 C.2     1  UNL1        0.3751
      7 N          -0.9457    1.5813   20.5878 N.2     1  UNL1       -0.0347
      8 C           0.3721    1.0432   20.1149 C.2     1  UNL1        0.2178
      9 C           1.1170   -0.2172   20.4411 C.3     1  UNL1        0.1040
     10 C           3.9819   -1.8476   21.3947 C.ar    1  UNL1        0.0711
     11 C           4.7267   -3.1080   21.7210 C.ar    1  UNL1        0.0038
     12 C           4.6789   -4.2731   20.7773 C.ar    1  UNL1       -0.0001
     13 C           3.8863   -4.1776   19.5074 C.ar    1  UNL1       -0.0000
     14 C           3.1415   -2.9171   19.1812 C.ar    1  UNL1       -0.0004
     15 C           3.1892   -1.7521   20.1248 C.ar    1  UNL1        0.0004
     16 F           4.0773    0.4824   23.2821 F       1  UNL1       -0.1659
     17 C           4.0296   -0.6825   22.3384 C.3     1  UNL1        0.4186
     18 F           2.8499   -1.2359   23.0812 F       1  UNL1       -0.1659
     19 F           5.2094   -0.1291   21.5956 F       1  UNL1       -0.1659
     20 C          -2.3742    3.7861   20.0942 C.2     1  UNL1        0.0913
     21 C          -3.6424    3.2254   20.6661 C.2     1  UNL1       -0.0185
     22 C          -4.8388    4.1114   20.8487 C.3     1  UNL1        0.0223
     23 C          -5.1194    5.2057   19.8619 C.3     1  UNL1        0.0043
     24 C          -6.3158    6.0918   20.0445 C.3     1  UNL1        0.0003
     25 C          -7.2318    5.8836   21.2140 C.3     1  UNL1        0.0000
     26 C          -6.9513    4.7893   22.2009 C.3     1  UNL1        0.0003
     27 C          -5.7548    3.9032   22.0182 C.3     1  UNL1        0.0043
@<TRIPOS>BOND
     1    16    17    1
     2    17    18    1
     3    17    19    1
     4    17    10    1
     5    10    11   ar
     6    11    12   ar
     7    12    13   ar
     8    13    14   ar
     9    14    15   ar
    10    15     1    1
    11     1     2    2
    12     2     3    1
    13     3     4    2
    14     4     5    1
    15     5     6    2
    16     6    20    1
    17    20    21    2
    18    21    22    1
    19    22    23    1
    20    23    24    1
    21    24    25    1
    22    25    26    1
    23    26    27    1
    24     6     7    1
    25     7     8    2
    26     8     9    1
    27    15    10   ar
    28     9     1    1
    29     8     4    1
    30    27    22    1
@<TRIPOS>MOLECULE
*****
 27 30 0 0 0
SMALL
GASTEIGER

@<TRIPOS>ATOM
      1 C           4.2875    0.2895   18.8258 C.2     1  UNL1       -0.0137
      2 C           4.2613   -0.7058   17.7039 C.2     1  UNL1        0.0001
      3 C           4.8917   -2.0550   17.8834 C.2     1  UNL1        0.0498
      4 C           5.5482   -2.4089   19.1848 C.2     1  UNL1        0.2321
      5 N           6.2468   -3.6517   19.6512 N.2     1  UNL1       -0.0308
      6 C           6.7047   -3.4245   21.0614 C.2     1  UNL1        0.3751
      7 N           6.2891   -2.0413   21.4666 N.2     1  UNL1       -0.0347
      8 C           5.5744   -1.4137   20.3067 C.2     1  UNL1        0.2178
      9 C           4.9440   -0.0645   20.1272 C.3     1  UNL1        0.1040
     10 C           2.2022    1.8338   18.9549 C.ar    1  UNL1        0.0711
     11 C           1.5717    3.1830   18.7755 C.ar    1  UNL1        0.0038
     12 C           2.3962    4.3372   18.2875 C.ar    1  UNL1       -0.0001
     13 C           3.8512    4.1421   17.9790 C.ar    1  UNL1       -0.0000
     14 C           4.4816    2.7929   18.1584 C.ar    1  UNL1       -0.0004
     15 C           3.6571    1.6387   18.6464 C.ar    1  UNL1        0.0004
     16 F           0.5532   -0.4746   19.9309 F       1  UNL1       -0.1659
     17 C           1.3776    0.6796   19.4429 C.3     1  UNL1        0.4186
     18 F           1.7478    1.0134   20.8576 F       1  UNL1       -0.1659
     19 F           1.0075    0.3458   18.0281 F       1  UNL1       -0.1659
     20 C           7.4477   -4.4079   21.9165 C.2     1  UNL1        0.0913
     21 C           7.0474   -4.6098   23.3479 C.2     1  UNL1       -0.0185
     22 C           7.7904   -5.5930   24.2029 C.3     1  UNL1        0.0223
     23 C           8.5394   -6.7256   23.5655 C.3     1  UNL1        0.0043
     24 C           9.2823   -7.7088   24.4205 C.3     1  UNL1        0.0003
     25 C           9.2763   -7.5596   25.9131 C.3     1  UNL1        0.0000
     26 C           8.5273   -6.4271   26.5506 C.3     1  UNL1        0.0003
     27 C           7.7843   -5.4438   25.6955 C.3     1  UNL1        0.0043
@<TRIPOS>BOND
     1    16    17    1
     2    17    18    1
     3    17    19    1
     4    17    10    1
     5    10    11   ar
     6    11    12   ar
     7    12    13   ar
     8    13    14   ar
     9    14    15   ar
    10    15     1    1
    11     1     2    2
    12     2     3    1
    13     3     4    2
    14     4     5    1
    15     5     6    2
    16     6    20    1
    17    20    21    2
    18    21    22    1
    19    22    23    1
    20    23    24    1
    21    24    25    1
    22    25    26    1
    23    26    27    1
    24     6     7    1
    25     7     8    2
    26     8     9    1
    27    15    10   ar
    28     9     1    1
    29     8     4    1
    30    27    22    1
@<TRIPOS>MOLECULE
*****
 27 30 0 0 0
SMALL
GASTEIGER

@<TRIPOS>ATOM
      1 C           7.3159   -2.9541   31.3955 C.2     1  UNL1       -0.0137
      2 C           7.1225   -4.4276   31.5987 C.2     1  UNL1        0.0001
      3 C           6.9137   -5.3267   30.4164 C.2     1  UNL1        0.0498
      4 C           6.8983   -4.7522   29.0308 C.2     1  UNL1        0.2321
      5 N           6.7154   -5.3859   27.6835 N.2     1  UNL1       -0.0308
      6 C           6.7958   -4.3040   26.6477 C.2     1  UNL1        0.3751
      7 N           7.0283   -3.0017   27.3548 N.2     1  UNL1       -0.0347
      8 C           7.0916   -3.2787   28.8276 C.2     1  UNL1        0.2178
      9 C           7.3004   -2.3797   30.0100 C.3     1  UNL1        0.1040
     10 C           6.3557   -1.3498   33.1996 C.ar    1  UNL1        0.0711
     11 C           6.5645   -0.4507   34.3819 C.ar    1  UNL1        0.0038
     12 C           7.9422   -0.2567   34.9427 C.ar    1  UNL1       -0.0001
     13 C           9.1111   -0.9618   34.3210 C.ar    1  UNL1       -0.0000
     14 C           8.9023   -1.8609   33.1386 C.ar    1  UNL1       -0.0004
     15 C           7.5247   -2.0549   32.5779 C.ar    1  UNL1        0.0004
     16 F           3.6004   -1.7378   32.0781 F       1  UNL1       -0.1659
     17 C           4.9780   -1.5439   32.6388 C.3     1  UNL1        0.4186
     18 F           5.1672   -0.3439   31.7589 F       1  UNL1       -0.1659
     19 F           4.7888   -2.7438   33.5188 F       1  UNL1       -0.1659
     20 C           6.6663   -4.4914   25.1650 C.2     1  UNL1        0.0913
     21 C           6.0388   -3.4184   24.3254 C.2     1  UNL1       -0.0185
     22 C           5.9094   -3.6058   22.8428 C.3     1  UNL1        0.0223
     23 C           4.5545   -3.7874   22.2253 C.3     1  UNL1        0.0043
     24 C           4.4250   -3.9748   20.7427 C.3     1  UNL1        0.0003
     25 C           5.6505   -3.9805   19.8776 C.3     1  UNL1        0.0000
     26 C           7.0053   -3.7989   20.4951 C.3     1  UNL1        0.0003
     27 C           7.1348   -3.6115   21.9778 C.3     1  UNL1        0.0043
@<TRIPOS>BOND
     1    16    17    1
     2    17    18    1
     3    17    19    1
     4    17    10    1
     5    10    11   ar
     6    11    12   ar
     7    12    13   ar
     8    13    14   ar
     9    14    15   ar
    10    15     1    1
    11     1     2    2
    12     2     3    1
    13     3     4    2
    14     4     5    1
    15     5     6    2
    16     6    20    1
    17    20    21    2
    18    21    22    1
    19    22    23    1
    20    23    24    1
    21    24    25    1
    22    25    26    1
    23    26    27    1
    24     6     7    1
    25     7     8    2
    26     8     9    1
    27    15    10   ar
    28     9     1    1
    29     8     4    1
    30    27    22    1
@<TRIPOS>MOLECULE
*****
 27 30 0 0 0
SMALL
GASTEIGER

@<TRIPOS>ATOM
      1 C           2.5328   -0.5303   19.4129 C.2     1  UNL1       -0.0137
      2 C           1.9071    0.2099   18.2681 C.2     1  UNL1        0.0001
      3 C           0.9152    1.3031   18.5343 C.2     1  UNL1        0.0498
      4 C           0.5489    1.6562   19.9454 C.2     1  UNL1        0.2321
      5 N          -0.3902    2.6791   20.5127 N.2     1  UNL1       -0.0308
      6 C          -0.3449    2.5711   22.0081 C.2     1  UNL1        0.3751
      7 N           0.6222    1.4815   22.3650 N.2     1  UNL1       -0.0347
      8 C           1.1746    0.9160   21.0903 C.2     1  UNL1        0.2178
      9 C           2.1666   -0.1772   20.8240 C.3     1  UNL1        0.1040
     10 C           4.8799   -1.2892   18.5972 C.ar    1  UNL1        0.0711
     11 C           5.8719   -2.3823   18.3310 C.ar    1  UNL1        0.0038
     12 C           5.5087   -3.8100   18.6141 C.ar    1  UNL1       -0.0001
     13 C           4.1536   -4.1443   19.1635 C.ar    1  UNL1       -0.0000
     14 C           3.1616   -3.0511   19.4297 C.ar    1  UNL1       -0.0004
     15 C           3.5248   -1.6235   19.1466 C.ar    1  UNL1        0.0004
     16 F           5.6062    1.5660   18.0310 F       1  UNL1       -0.1659
     17 C           5.2431    0.1385   18.3141 C.3     1  UNL1        0.4186
     18 F           4.8539   -0.0475   16.8775 F       1  UNL1       -0.1659
     19 F           5.6322    0.3244   19.7507 F       1  UNL1       -0.1659
     20 C          -1.1291    3.4061   22.9766 C.2     1  UNL1        0.0913
     21 C          -1.4796    2.8571   24.3278 C.2     1  UNL1       -0.0185
     22 C          -2.2637    3.6920   25.2963 C.3     1  UNL1        0.0223
     23 C          -3.7592    3.5848   25.3395 C.3     1  UNL1        0.0043
     24 C          -4.5433    4.4197   26.3080 C.3     1  UNL1        0.0003
     25 C          -3.8319    5.3620   27.2333 C.3     1  UNL1        0.0000
     26 C          -2.3364    5.4693   27.1900 C.3     1  UNL1        0.0003
     27 C          -1.5522    4.6343   26.2215 C.3     1  UNL1        0.0043
@<TRIPOS>BOND
     1    16    17    1
     2    17    18    1
     3    17    19    1
     4    17    10    1
     5    10    11   ar
     6    11    12   ar
     7    12    13   ar
     8    13    14   ar
     9    14    15   ar
    10    15     1    1
    11     1     2    2
    12     2     3    1
    13     3     4    2
    14     4     5    1
    15     5     6    2
    16     6    20    1
    17    20    21    2
    18    21    22    1
    19    22    23    1
    20    23    24    1
    21    24    25    1
    22    25    26    1
    23    26    27    1
    24     6     7    1
    25     7     8    2
    26     8     9    1
    27    15    10   ar
    28     9     1    1
    29     8     4    1
    30    27    22    1
@<TRIPOS>MOLECULE
*****
 27 30 0 0 0
SMALL
GASTEIGER

@<TRIPOS>ATOM
      1 C         -10.5762  -18.8405   22.1898 C.2     1  UNL1       -0.0137
      2 C         -10.8119  -19.6041   20.9204 C.2     1  UNL1        0.0001
      3 C          -9.6673  -19.8913   19.9945 C.2     1  UNL1        0.0498
      4 C          -8.2870  -19.4149   20.3380 C.2     1  UNL1        0.2321
      5 N          -6.9734  -19.5470   19.6258 N.2     1  UNL1       -0.0308
      6 C          -5.9260  -18.8650   20.4551 C.2     1  UNL1        0.3751
      7 N          -6.5922  -18.3114   21.6797 N.2     1  UNL1       -0.0347
      8 C          -8.0514  -18.6513   21.6073 C.2     1  UNL1        0.2178
      9 C          -9.1960  -18.3641   22.5332 C.3     1  UNL1        0.1040
     10 C         -12.7177  -17.4878   22.7679 C.ar    1  UNL1        0.0711
     11 C         -13.8623  -17.2005   23.6939 C.ar    1  UNL1        0.0038
     12 C         -14.0101  -17.9788   24.9677 C.ar    1  UNL1       -0.0001
     13 C         -13.0132  -19.0443   25.3155 C.ar    1  UNL1       -0.0000
     14 C         -11.8686  -19.3315   24.3895 C.ar    1  UNL1       -0.0004
     15 C         -11.7209  -18.5533   23.1158 C.ar    1  UNL1        0.0004
     16 F         -12.4221  -15.9312   20.2204 F       1  UNL1       -0.1659
     17 C         -12.5699  -16.7095   21.4941 C.3     1  UNL1        0.4186
     18 F         -11.7255  -15.6976   22.2104 F       1  UNL1       -0.1659
     19 F         -13.4143  -17.7213   20.7779 F       1  UNL1       -0.1659
     20 C          -4.4682  -18.7557   20.1188 C.2     1  UNL1        0.0913
     21 C          -3.5651  -17.9072   20.9640 C.2     1  UNL1       -0.0185
     22 C          -2.1074  -17.7979   20.6278 C.3     1  UNL1        0.0223
     23 C          -1.3913  -16.4926   20.8107 C.3     1  UNL1        0.0043
     24 C           0.0664  -16.3834   20.4744 C.3     1  UNL1        0.0003
     25 C           0.8081  -17.5794   19.9553 C.3     1  UNL1        0.0000
     26 C           0.0920  -18.8847   19.7724 C.3     1  UNL1        0.0003
     27 C          -1.3658  -18.9939   20.1087 C.3     1  UNL1        0.0043
@<TRIPOS>BOND
     1    16    17    1
     2    17    18    1
     3    17    19    1
     4    17    10    1
     5    10    11   ar
     6    11    12   ar
     7    12    13   ar
     8    13    14   ar
     9    14    15   ar
    10    15     1    1
    11     1     2    2
    12     2     3    1
    13     3     4    2
    14     4     5    1
    15     5     6    2
    16     6    20    1
    17    20    21    2
    18    21    22    1
    19    22    23    1
    20    23    24    1
    21    24    25    1
    22    25    26    1
    23    26    27    1
    24     6     7    1
    25     7     8    2
    26     8     9    1
    27    15    10   ar
    28     9     1    1
    29     8     4    1
    30    27    22    1
