@<TRIPOS>MOLECULE
*****
 35 39 0 0 0
SMALL
GASTEIGER

@<TRIPOS>ATOM
      1 C           8.9612   -5.7496   23.3570 C.ar    1  UNL1        0.0644
      2 C           8.9673   -7.2453   23.4711 C.ar    1  UNL1        0.0155
      3 C           8.9504   -7.8943   24.8234 C.ar    1  UNL1       -0.0032
      4 C           8.9275   -7.0476   26.0614 C.ar    1  UNL1       -0.0246
      5 C           8.9215   -5.5521   25.9472 C.ar    1  UNL1       -0.0234
      6 C           8.9383   -4.9030   24.5950 C.ar    1  UNL1        0.0113
      7 C           8.8998   -4.5303   27.0452 C.3     1  UNL1        0.0434
      8 C           8.8787   -4.7519   28.5287 C.3     1  UNL1        0.0771
      9 N           8.8742   -6.0499   29.2803 N.3     1  UNL1       -0.2671
     10 C           8.8897   -7.4469   28.7344 C.3     1  UNL1        0.0771
     11 C           8.9134   -7.8910   27.3018 C.3     1  UNL1        0.0434
     12 N           8.9780   -5.1007   22.0047 N.pl3   1  UNL1       -0.2150
     13 H           9.7458   -5.2357   21.4034 H       1  UNL1        0.1737
     14 O           8.7262   -3.5156   20.6175 O.2     1  UNL1       -0.1499
     15 S           7.8251   -4.2459   21.5687 S.O2    1  UNL1        0.0736
     16 O           6.9240   -4.9761   22.5199 O.2     1  UNL1       -0.1499
     17 C           6.6722   -3.3911   21.1327 C.ar    1  UNL1        0.1252
     18 C           5.4345   -3.3138   21.9767 C.ar    1  UNL1        0.0202
     19 C           4.2816   -2.4590   21.5406 C.ar    1  UNL1        0.0014
     20 C           4.3663   -1.6816   20.2606 C.ar    1  UNL1        0.0001
     21 C           5.6039   -1.7588   19.4166 C.ar    1  UNL1        0.0014
     22 C           6.7569   -2.6136   19.8527 C.ar    1  UNL1        0.0202
     23 C           3.2134   -0.8268   19.8245 C.ar    1  UNL1        0.0000
     24 C           3.3899    0.1563   18.7054 C.ar    1  UNL1        0.0000
     25 C           2.2371    1.0112   18.2692 C.ar    1  UNL1        0.0000
     26 C           0.9077    0.8829   18.9522 C.ar    1  UNL1        0.0000
     27 C           0.7313   -0.1002   20.0714 C.ar    1  UNL1        0.0000
     28 C           1.8841   -0.9550   20.5074 C.ar    1  UNL1        0.0000
     29 C           8.8513   -5.9358   30.7758 C.3     1  UNL1        0.1180
     30 C           8.0491   -4.8520   31.4332 C.ar    1  UNL1        0.0693
     31 C           8.5206   -3.4575   31.7214 C.ar    1  UNL1        0.0379
     32 C           7.3975   -2.7163   32.3841 C.ar    1  UNL1        0.1211
     33 N           6.2319   -3.6526   32.5055 N.ar    1  UNL1       -0.1713
     34 N           6.6346   -4.9727   31.9178 N.ar    1  UNL1       -0.2784
     35 H           6.0698   -5.7770   31.8602 H       1  UNL1        0.1886
@<TRIPOS>BOND
     1    14    15    2
     2    15    16    2
     3    15    12    1
     4    12     1    1
     5     1     2   ar
     6     2     3   ar
     7     3     4   ar
     8     4     5   ar
     9     5     6   ar
    10     5     7    1
    11     7     8    1
    12     8     9    1
    13     9    29    1
    14    29    30    1
    15    30    31   ar
    16    31    32   ar
    17    32    33   ar
    18    33    34   ar
    19     9    10    1
    20    10    11    1
    21    15    17    1
    22    17    18   ar
    23    18    19   ar
    24    19    20   ar
    25    20    23    1
    26    23    24   ar
    27    24    25   ar
    28    25    26   ar
    29    26    27   ar
    30    27    28   ar
    31    20    21   ar
    32    21    22   ar
    33     6     1   ar
    34    34    30   ar
    35    22    17   ar
    36    11     4    1
    37    28    23   ar
    38    12    13    1
    39    34    35    1
@<TRIPOS>MOLECULE
*****
 35 39 0 0 0
SMALL
GASTEIGER

@<TRIPOS>ATOM
      1 C           2.4104    1.3410   30.3049 C.ar    1  UNL1        0.0644
      2 C           3.2316    0.0858   30.2957 C.ar    1  UNL1        0.0155
      3 C           3.8361   -0.4244   31.5702 C.ar    1  UNL1       -0.0032
      4 C           3.6194    0.3207   32.8539 C.ar    1  UNL1       -0.0246
      5 C           2.7983    1.5758   32.8631 C.ar    1  UNL1       -0.0234
      6 C           2.1937    2.0860   31.5887 C.ar    1  UNL1        0.0113
      7 C           2.4612    2.4645   34.0236 C.3     1  UNL1        0.0434
      8 C           2.8623    2.3173   35.4616 C.3     1  UNL1        0.0771
      9 N           3.6993    1.2453   36.0940 N.3     1  UNL1       -0.2671
     10 C           4.3420    0.0555   35.4449 C.3     1  UNL1        0.0771
     11 C           4.3065   -0.3560   34.0029 C.3     1  UNL1        0.0434
     12 N           1.8060    1.8511   29.0304 N.pl3   1  UNL1       -0.2150
     13 H           1.1967    2.6242   29.0494 H       1  UNL1        0.1737
     14 O           0.8946    0.3413   27.8513 O.2     1  UNL1       -0.1499
     15 S           2.1298    1.1833   27.7269 S.O2    1  UNL1        0.0736
     16 O           3.3650    2.0252   27.6024 O.2     1  UNL1       -0.1499
     17 C           2.4537    0.5154   26.4234 C.ar    1  UNL1        0.1252
     18 C           1.7551    0.9442   25.1671 C.ar    1  UNL1        0.0202
     19 C           2.0791    0.2763   23.8636 C.ar    1  UNL1        0.0014
     20 C           3.1014   -0.8202   23.8163 C.ar    1  UNL1        0.0001
     21 C           3.8000   -1.2490   25.0726 C.ar    1  UNL1        0.0014
     22 C           3.4761   -0.5812   26.3762 C.ar    1  UNL1        0.0202
     23 C           3.4253   -1.4881   22.5129 C.ar    1  UNL1        0.0000
     24 C           4.3236   -2.6892   22.4886 C.ar    1  UNL1        0.0000
     25 C           4.6476   -3.3571   21.1851 C.ar    1  UNL1        0.0000
     26 C           4.0733   -2.8240   19.9061 C.ar    1  UNL1        0.0000
     27 C           3.1750   -1.6229   19.9305 C.ar    1  UNL1        0.0000
     28 C           2.8511   -0.9551   21.2338 C.ar    1  UNL1        0.0000
     29 C           3.9232    1.3809   37.5710 C.3     1  UNL1        0.1180
     30 C           2.7573    1.3348   38.5138 C.ar    1  UNL1        0.0693
     31 C           1.8724    2.4897   38.8788 C.ar    1  UNL1        0.0379
     32 C           0.8399    1.9943   39.8476 C.ar    1  UNL1        0.1211
     33 N           1.0866    0.5333   40.0813 N.ar    1  UNL1       -0.1713
     34 N           2.2717    0.1257   39.2569 N.ar    1  UNL1       -0.2784
     35 H           2.6621   -0.7769   39.2115 H       1  UNL1        0.1886
@<TRIPOS>BOND
     1    14    15    2
     2    15    16    2
     3    15    12    1
     4    12     1    1
     5     1     2   ar
     6     2     3   ar
     7     3     4   ar
     8     4     5   ar
     9     5     6   ar
    10     5     7    1
    11     7     8    1
    12     8     9    1
    13     9    29    1
    14    29    30    1
    15    30    31   ar
    16    31    32   ar
    17    32    33   ar
    18    33    34   ar
    19     9    10    1
    20    10    11    1
    21    15    17    1
    22    17    18   ar
    23    18    19   ar
    24    19    20   ar
    25    20    23    1
    26    23    24   ar
    27    24    25   ar
    28    25    26   ar
    29    26    27   ar
    30    27    28   ar
    31    20    21   ar
    32    21    22   ar
    33     6     1   ar
    34    34    30   ar
    35    22    17   ar
    36    11     4    1
    37    28    23   ar
    38    12    13    1
    39    34    35    1
@<TRIPOS>MOLECULE
*****
 35 39 0 0 0
SMALL
GASTEIGER

@<TRIPOS>ATOM
      1 C           7.1783   -4.8904   23.7548 C.ar    1  UNL1        0.0644
      2 C           7.9587   -6.1685   23.8421 C.ar    1  UNL1        0.0155
      3 C           8.2662   -6.7695   25.1816 C.ar    1  UNL1       -0.0032
      4 C           7.7935   -6.0923   26.4338 C.ar    1  UNL1       -0.0246
      5 C           7.0132   -4.8143   26.3465 C.ar    1  UNL1       -0.0234
      6 C           6.7056   -4.2133   25.0071 C.ar    1  UNL1        0.0113
      7 C           6.4521   -3.9830   27.4620 C.3     1  UNL1        0.0434
      8 C           6.5328   -4.2246   28.9403 C.3     1  UNL1        0.0771
      9 N           7.1944   -5.3570   29.6680 N.3     1  UNL1       -0.2671
     10 C           7.9389   -6.5276   29.0975 C.3     1  UNL1        0.0771
     11 C           8.2055   -6.8549   27.6581 C.3     1  UNL1        0.0434
     12 N           6.8708   -4.2895   22.4153 N.pl3   1  UNL1       -0.2150
     13 H           7.3932   -4.5560   21.6246 H       1  UNL1        0.1737
     14 O           4.7661   -4.3942   22.1712 O.2     1  UNL1       -0.1499
     15 S           5.7672   -3.2825   22.2806 S.O2    1  UNL1        0.0736
     16 O           6.7683   -2.1708   22.3901 O.2     1  UNL1       -0.1499
     17 C           4.6636   -2.2755   22.1460 C.ar    1  UNL1        0.1252
     18 C           4.0332   -2.0282   20.8075 C.ar    1  UNL1        0.0202
     19 C           2.9297   -1.0212   20.6729 C.ar    1  UNL1        0.0014
     20 C           2.4565   -0.2615   21.8766 C.ar    1  UNL1        0.0001
     21 C           3.0869   -0.5088   23.2151 C.ar    1  UNL1        0.0014
     22 C           4.1905   -1.5158   23.3498 C.ar    1  UNL1        0.0202
     23 C           1.3529    0.7454   21.7421 C.ar    1  UNL1        0.0000
     24 C           0.6808    0.9487   20.4166 C.ar    1  UNL1        0.0000
     25 C          -0.4228    1.9557   20.2819 C.ar    1  UNL1        0.0000
     26 C          -0.8542    2.7594   21.4727 C.ar    1  UNL1        0.0000
     27 C          -0.1820    2.5561   22.7982 C.ar    1  UNL1        0.0000
     28 C           0.9215    1.5492   22.9328 C.ar    1  UNL1        0.0000
     29 C           7.0991   -5.3130   31.1644 C.3     1  UNL1        0.1180
     30 C           6.8876   -4.0032   31.8643 C.ar    1  UNL1        0.0693
     31 C           7.9336   -2.9573   32.1128 C.ar    1  UNL1        0.0379
     32 C           7.2853   -1.8172   32.8408 C.ar    1  UNL1        0.1211
     33 N           5.8387   -2.1585   33.0422 N.ar    1  UNL1       -0.1713
     34 N           5.5928   -3.5096   32.4387 N.ar    1  UNL1       -0.2784
     35 H           4.7326   -3.9883   32.4224 H       1  UNL1        0.1886
@<TRIPOS>BOND
     1    14    15    2
     2    15    16    2
     3    15    12    1
     4    12     1    1
     5     1     2   ar
     6     2     3   ar
     7     3     4   ar
     8     4     5   ar
     9     5     6   ar
    10     5     7    1
    11     7     8    1
    12     8     9    1
    13     9    29    1
    14    29    30    1
    15    30    31   ar
    16    31    32   ar
    17    32    33   ar
    18    33    34   ar
    19     9    10    1
    20    10    11    1
    21    15    17    1
    22    17    18   ar
    23    18    19   ar
    24    19    20   ar
    25    20    23    1
    26    23    24   ar
    27    24    25   ar
    28    25    26   ar
    29    26    27   ar
    30    27    28   ar
    31    20    21   ar
    32    21    22   ar
    33     6     1   ar
    34    34    30   ar
    35    22    17   ar
    36    11     4    1
    37    28    23   ar
    38    12    13    1
    39    34    35    1
@<TRIPOS>MOLECULE
*****
 35 39 0 0 0
SMALL
GASTEIGER

@<TRIPOS>ATOM
      1 C           1.8996    1.1294   25.8411 C.ar    1  UNL1        0.0644
      2 C           2.9422    0.2136   26.4107 C.ar    1  UNL1        0.0155
      3 C           3.6576   -0.7561   25.5173 C.ar    1  UNL1       -0.0032
      4 C           3.3304   -0.8099   24.0544 C.ar    1  UNL1       -0.0246
      5 C           2.2879    0.1059   23.4849 C.ar    1  UNL1       -0.0234
      6 C           1.5725    1.0755   24.3781 C.ar    1  UNL1        0.0113
      7 C           1.8131    0.2150   22.0661 C.3     1  UNL1        0.0434
      8 C           2.2637   -0.5650   20.8666 C.3     1  UNL1        0.0771
      9 N           3.3002   -1.6463   20.7896 N.3     1  UNL1       -0.2671
     10 C           4.1423   -2.2151   21.8930 C.3     1  UNL1        0.0771
     11 C           4.1557   -1.8428   23.3460 C.3     1  UNL1        0.0434
     12 N           1.1842    2.0990   26.7344 N.pl3   1  UNL1       -0.2150
     13 H           1.6104    2.4087   27.5661 H       1  UNL1        0.1737
     14 O           0.4250    3.8664   25.8401 O.2     1  UNL1       -0.1499
     15 S          -0.1806    2.5966   26.3606 S.O2    1  UNL1        0.0736
     16 O          -0.7861    1.3268   26.8812 O.2     1  UNL1       -0.1499
     17 C          -1.5454    3.0942   25.9868 C.ar    1  UNL1        0.1252
     18 C          -1.9165    3.2519   24.5420 C.ar    1  UNL1        0.0202
     19 C          -3.2813    3.7495   24.1683 C.ar    1  UNL1        0.0014
     20 C          -4.2750    4.0894   25.2392 C.ar    1  UNL1        0.0001
     21 C          -3.9039    3.9318   26.6841 C.ar    1  UNL1        0.0014
     22 C          -2.5391    3.4341   27.0579 C.ar    1  UNL1        0.0202
     23 C          -5.6398    4.5870   24.8655 C.ar    1  UNL1        0.0000
     24 C          -6.3485    5.5688   25.7510 C.ar    1  UNL1        0.0000
     25 C          -7.7133    6.0665   25.3774 C.ar    1  UNL1        0.0000
     26 C          -8.3694    5.5824   24.1183 C.ar    1  UNL1        0.0000
     27 C          -7.6607    4.6007   23.2329 C.ar    1  UNL1        0.0000
     28 C          -6.2960    4.1031   23.6065 C.ar    1  UNL1        0.0000
     29 C           3.5244   -2.2372   19.4292 C.3     1  UNL1        0.1180
     30 C           4.7507   -1.8727   18.6458 C.ar    1  UNL1        0.0693
     31 C           5.1361   -0.4923   18.2032 C.ar    1  UNL1        0.0379
     32 C           6.4303   -0.5911   17.4515 C.ar    1  UNL1        0.1211
     33 N           6.8448   -2.0325   17.4294 N.ar    1  UNL1       -0.1713
     34 N           5.8067   -2.8247   18.1676 N.ar    1  UNL1       -0.2784
     35 H           5.8167   -3.7983   18.3128 H       1  UNL1        0.1886
@<TRIPOS>BOND
     1    14    15    2
     2    15    16    2
     3    15    12    1
     4    12     1    1
     5     1     2   ar
     6     2     3   ar
     7     3     4   ar
     8     4     5   ar
     9     5     6   ar
    10     5     7    1
    11     7     8    1
    12     8     9    1
    13     9    29    1
    14    29    30    1
    15    30    31   ar
    16    31    32   ar
    17    32    33   ar
    18    33    34   ar
    19     9    10    1
    20    10    11    1
    21    15    17    1
    22    17    18   ar
    23    18    19   ar
    24    19    20   ar
    25    20    23    1
    26    23    24   ar
    27    24    25   ar
    28    25    26   ar
    29    26    27   ar
    30    27    28   ar
    31    20    21   ar
    32    21    22   ar
    33     6     1   ar
    34    34    30   ar
    35    22    17   ar
    36    11     4    1
    37    28    23   ar
    38    12    13    1
    39    34    35    1
@<TRIPOS>MOLECULE
*****
 35 39 0 0 0
SMALL
GASTEIGER

@<TRIPOS>ATOM
      1 C           7.7016   -6.7029   25.9250 C.ar    1  UNL1        0.0644
      2 C           8.4067   -7.6519   25.0018 C.ar    1  UNL1        0.0155
      3 C           8.7704   -7.2162   23.6132 C.ar    1  UNL1       -0.0032
      4 C           8.4290   -5.8316   23.1480 C.ar    1  UNL1       -0.0246
      5 C           7.7240   -4.8828   24.0712 C.ar    1  UNL1       -0.0234
      6 C           7.3602   -5.3184   25.4597 C.ar    1  UNL1        0.0113
      7 C           7.2944   -3.4695   23.8101 C.3     1  UNL1        0.0434
      8 C           7.4639   -2.6561   22.5612 C.3     1  UNL1        0.0771
      9 N           8.1047   -3.0551   21.2651 N.3     1  UNL1       -0.2671
     10 C           8.7344   -4.3660   20.8976 C.3     1  UNL1        0.0771
     11 C           8.8788   -5.6017   21.7356 C.3     1  UNL1        0.0434
     12 N           7.3379   -7.1386   27.3135 N.pl3   1  UNL1       -0.2150
     13 H           7.2420   -8.0965   27.5196 H       1  UNL1        0.1737
     14 O           8.5631   -6.2230   28.7834 O.2     1  UNL1       -0.1499
     15 S           7.1202   -6.1148   28.3879 S.O2    1  UNL1        0.0736
     16 O           5.6773   -6.0065   27.9924 O.2     1  UNL1       -0.1499
     17 C           6.9025   -5.0909   29.4623 C.ar    1  UNL1        0.1252
     18 C           6.9906   -5.4884   30.9060 C.ar    1  UNL1        0.0202
     19 C           6.7729   -4.4645   31.9804 C.ar    1  UNL1        0.0014
     20 C           6.4671   -3.0432   31.6112 C.ar    1  UNL1        0.0001
     21 C           6.3790   -2.6457   30.1675 C.ar    1  UNL1        0.0014
     22 C           6.5967   -3.6696   29.0930 C.ar    1  UNL1        0.0202
     23 C           6.2495   -2.0193   32.6855 C.ar    1  UNL1        0.0000
     24 C           7.3244   -1.0211   32.9990 C.ar    1  UNL1        0.0000
     25 C           7.1068    0.0028   34.0734 C.ar    1  UNL1        0.0000
     26 C           5.8142    0.0286   34.8342 C.ar    1  UNL1        0.0000
     27 C           4.7394   -0.9696   34.5206 C.ar    1  UNL1        0.0000
     28 C           4.9570   -1.9935   33.4463 C.ar    1  UNL1        0.0000
     29 C           8.1177   -2.0042   20.1948 C.3     1  UNL1        0.1180
     30 C           6.9944   -1.9294   19.2035 C.ar    1  UNL1        0.0693
     31 C           5.7352   -2.7439   19.2346 C.ar    1  UNL1        0.0379
     32 C           4.8958   -2.3448   18.0574 C.ar    1  UNL1        0.1211
     33 N           5.6361   -1.2836   17.2986 N.ar    1  UNL1       -0.1713
     34 N           6.9332   -1.0268   18.0069 N.ar    1  UNL1       -0.2784
     35 H           7.6232   -0.3796   17.7343 H       1  UNL1        0.1886
@<TRIPOS>BOND
     1    14    15    2
     2    15    16    2
     3    15    12    1
     4    12     1    1
     5     1     2   ar
     6     2     3   ar
     7     3     4   ar
     8     4     5   ar
     9     5     6   ar
    10     5     7    1
    11     7     8    1
    12     8     9    1
    13     9    29    1
    14    29    30    1
    15    30    31   ar
    16    31    32   ar
    17    32    33   ar
    18    33    34   ar
    19     9    10    1
    20    10    11    1
    21    15    17    1
    22    17    18   ar
    23    18    19   ar
    24    19    20   ar
    25    20    23    1
    26    23    24   ar
    27    24    25   ar
    28    25    26   ar
    29    26    27   ar
    30    27    28   ar
    31    20    21   ar
    32    21    22   ar
    33     6     1   ar
    34    34    30   ar
    35    22    17   ar
    36    11     4    1
    37    28    23   ar
    38    12    13    1
    39    34    35    1
@<TRIPOS>MOLECULE
*****
 35 39 0 0 0
SMALL
GASTEIGER

@<TRIPOS>ATOM
      1 C           1.1388    1.7930   29.8887 C.ar    1  UNL1        0.0644
      2 C           2.0148    0.5780   29.8085 C.ar    1  UNL1        0.0155
      3 C           2.8164    0.1512   31.0024 C.ar    1  UNL1       -0.0032
      4 C           2.7418    0.9394   32.2765 C.ar    1  UNL1       -0.0246
      5 C           1.8658    2.1543   32.3566 C.ar    1  UNL1       -0.0234
      6 C           1.0643    2.5812   31.1628 C.ar    1  UNL1        0.0113
      7 C           1.6478    3.0750   33.5207 C.3     1  UNL1        0.0434
      8 C           2.2520    3.0080   34.8920 C.3     1  UNL1        0.0771
      9 N           3.2233    2.0039   35.4379 N.3     1  UNL1       -0.2671
     10 C           3.8305    0.8187   34.7475 C.3     1  UNL1        0.0771
     11 C           3.6162    0.3449   33.3405 C.3     1  UNL1        0.0434
     12 N           0.3373    2.2198   28.6947 N.pl3   1  UNL1       -0.2150
     13 H          -0.4514    2.7972   28.8121 H       1  UNL1        0.1737
     14 O          -0.3676    0.7526   27.3344 O.2     1  UNL1       -0.1499
     15 S           0.7375    1.7668   27.3219 S.O2    1  UNL1        0.0736
     16 O           1.8427    2.7809   27.3095 O.2     1  UNL1       -0.1499
     17 C           1.1378    1.3137   25.9491 C.ar    1  UNL1        0.1252
     18 C           2.4137    0.5495   25.7538 C.ar    1  UNL1        0.0202
     19 C           2.8138    0.0965   24.3810 C.ar    1  UNL1        0.0014
     20 C           1.9383    0.4077   23.2035 C.ar    1  UNL1        0.0001
     21 C           0.6624    1.1719   23.3988 C.ar    1  UNL1        0.0014
     22 C           0.2621    1.6249   24.7716 C.ar    1  UNL1        0.0202
     23 C           2.3384   -0.0453   21.8307 C.ar    1  UNL1        0.0000
     24 C           1.8564    0.7036   20.6237 C.ar    1  UNL1        0.0000
     25 C           2.2565    0.2507   19.2508 C.ar    1  UNL1        0.0000
     26 C           3.1387   -0.9511   19.0849 C.ar    1  UNL1        0.0000
     27 C           3.6207   -1.7000   20.2920 C.ar    1  UNL1        0.0000
     28 C           3.2206   -1.2471   21.6647 C.ar    1  UNL1        0.0000
     29 C           3.6430    2.2125   36.8628 C.3     1  UNL1        0.1180
     30 C           2.7214    1.8242   37.9808 C.ar    1  UNL1        0.0693
     31 C           1.6204    2.6693   38.5498 C.ar    1  UNL1        0.0379
     32 C           0.9576    1.8899   39.6467 C.ar    1  UNL1        0.1211
     33 N           1.6488    0.5631   39.7557 N.ar    1  UNL1       -0.1713
     34 N           2.7389    0.5225   38.7261 N.ar    1  UNL1       -0.2784
     35 H           3.3573   -0.2270   38.5673 H       1  UNL1        0.1886
@<TRIPOS>BOND
     1    14    15    2
     2    15    16    2
     3    15    12    1
     4    12     1    1
     5     1     2   ar
     6     2     3   ar
     7     3     4   ar
     8     4     5   ar
     9     5     6   ar
    10     5     7    1
    11     7     8    1
    12     8     9    1
    13     9    29    1
    14    29    30    1
    15    30    31   ar
    16    31    32   ar
    17    32    33   ar
    18    33    34   ar
    19     9    10    1
    20    10    11    1
    21    15    17    1
    22    17    18   ar
    23    18    19   ar
    24    19    20   ar
    25    20    23    1
    26    23    24   ar
    27    24    25   ar
    28    25    26   ar
    29    26    27   ar
    30    27    28   ar
    31    20    21   ar
    32    21    22   ar
    33     6     1   ar
    34    34    30   ar
    35    22    17   ar
    36    11     4    1
    37    28    23   ar
    38    12    13    1
    39    34    35    1
@<TRIPOS>MOLECULE
*****
 35 39 0 0 0
SMALL
GASTEIGER

@<TRIPOS>ATOM
      1 C           4.3086   -0.5009   30.5437 C.ar    1  UNL1        0.0644
      2 C           5.0240   -1.6632   31.1659 C.ar    1  UNL1        0.0155
      3 C           5.2215   -1.7141   32.6520 C.ar    1  UNL1       -0.0032
      4 C           4.7034   -0.6026   33.5159 C.ar    1  UNL1       -0.0246
      5 C           3.9881    0.5596   32.8937 C.ar    1  UNL1       -0.0234
      6 C           3.7906    0.6106   31.4077 C.ar    1  UNL1        0.0113
      7 C           3.3972    1.7632   33.5666 C.3     1  UNL1        0.0434
      8 C           3.3760    2.1015   35.0279 C.3     1  UNL1        0.0771
      9 N           3.9403    1.3199   36.1770 N.3     1  UNL1       -0.2671
     10 C           4.6652    0.0070   36.1489 C.3     1  UNL1        0.0771
     11 C           5.0048   -0.8486   34.9646 C.3     1  UNL1        0.0434
     12 N           4.1112   -0.4500   29.0577 N.pl3   1  UNL1       -0.2150
     13 H           4.7661   -0.8768   28.4592 H       1  UNL1        0.1737
     14 O           3.7872    1.4014   28.0742 O.2     1  UNL1       -0.1499
     15 S           2.9159    0.2511   28.4835 S.O2    1  UNL1        0.0736
     16 O           2.0445   -0.8992   28.8928 O.2     1  UNL1       -0.1499
     17 C           1.7206    0.9522   27.9093 C.ar    1  UNL1        0.1252
     18 C           1.9066    2.1478   27.0227 C.ar    1  UNL1        0.0202
     19 C           0.7112    2.8489   26.4486 C.ar    1  UNL1        0.0014
     20 C          -0.6700    2.3544   26.7609 C.ar    1  UNL1        0.0001
     21 C          -0.8560    1.1588   27.6474 C.ar    1  UNL1        0.0014
     22 C           0.3393    0.4577   28.2216 C.ar    1  UNL1        0.0202
     23 C          -1.8654    3.0555   26.1867 C.ar    1  UNL1        0.0000
     24 C          -2.9181    3.6120   27.0989 C.ar    1  UNL1        0.0000
     25 C          -4.1135    4.3131   26.5248 C.ar    1  UNL1        0.0000
     26 C          -4.2562    4.4576   25.0386 C.ar    1  UNL1        0.0000
     27 C          -3.2034    3.9010   24.1265 C.ar    1  UNL1        0.0000
     28 C          -2.0081    3.2000   24.7005 C.ar    1  UNL1        0.0000
     29 C           3.7552    1.9322   37.5338 C.3     1  UNL1        0.1180
     30 C           2.4157    1.8741   38.2065 C.ar    1  UNL1        0.0693
     31 C           1.9272    0.7769   39.1051 C.ar    1  UNL1        0.0379
     32 C           0.5393    1.1277   39.5527 C.ar    1  UNL1        0.1211
     33 N           0.1699    2.4418   38.9308 N.ar    1  UNL1       -0.1713
     34 N           1.3296    2.9031   38.0988 N.ar    1  UNL1       -0.2784
     35 H           1.3708    3.7352   37.5741 H       1  UNL1        0.1886
@<TRIPOS>BOND
     1    14    15    2
     2    15    16    2
     3    15    12    1
     4    12     1    1
     5     1     2   ar
     6     2     3   ar
     7     3     4   ar
     8     4     5   ar
     9     5     6   ar
    10     5     7    1
    11     7     8    1
    12     8     9    1
    13     9    29    1
    14    29    30    1
    15    30    31   ar
    16    31    32   ar
    17    32    33   ar
    18    33    34   ar
    19     9    10    1
    20    10    11    1
    21    15    17    1
    22    17    18   ar
    23    18    19   ar
    24    19    20   ar
    25    20    23    1
    26    23    24   ar
    27    24    25   ar
    28    25    26   ar
    29    26    27   ar
    30    27    28   ar
    31    20    21   ar
    32    21    22   ar
    33     6     1   ar
    34    34    30   ar
    35    22    17   ar
    36    11     4    1
    37    28    23   ar
    38    12    13    1
    39    34    35    1
@<TRIPOS>MOLECULE
*****
 35 39 0 0 0
SMALL
GASTEIGER

@<TRIPOS>ATOM
      1 C           4.0465   -2.0093   18.9755 C.ar    1  UNL1        0.0644
      2 C           3.9570   -1.2490   17.6856 C.ar    1  UNL1        0.0155
      3 C           3.0321   -0.0737   17.5703 C.ar    1  UNL1       -0.0032
      4 C           2.1968    0.3414   18.7451 C.ar    1  UNL1       -0.0246
      5 C           2.2863   -0.4188   20.0349 C.ar    1  UNL1       -0.0234
      6 C           3.2111   -1.5941   20.1503 C.ar    1  UNL1        0.0113
      7 C           1.5477   -0.1749   21.3175 C.3     1  UNL1        0.0434
      8 C           0.5369    0.8895   21.6268 C.3     1  UNL1        0.0771
      9 N           0.0154    1.9728   20.7300 N.3     1  UNL1       -0.2671
     10 C           0.3756    2.2593   19.3024 C.3     1  UNL1        0.0771
     11 C           1.3464    1.5333   18.4190 C.3     1  UNL1        0.0434
     12 N           4.9713   -3.1846   19.0907 N.pl3   1  UNL1       -0.2150
     13 H           5.1624   -3.7399   18.3006 H       1  UNL1        0.1737
     14 O           6.5524   -2.3627   20.2418 O.2     1  UNL1       -0.1499
     15 S           5.6051   -3.5136   20.4098 S.O2    1  UNL1        0.0736
     16 O           4.6579   -4.6645   20.5778 O.2     1  UNL1       -0.1499
     17 C           6.2389   -3.8427   21.7289 C.ar    1  UNL1        0.1252
     18 C           7.6064   -4.4579   21.7713 C.ar    1  UNL1        0.0202
     19 C           8.2401   -4.7869   23.0904 C.ar    1  UNL1        0.0014
     20 C           7.5066   -4.5009   24.3671 C.ar    1  UNL1        0.0001
     21 C           6.1391   -3.8858   24.3248 C.ar    1  UNL1        0.0014
     22 C           5.5053   -3.5567   23.0057 C.ar    1  UNL1        0.0202
     23 C           8.1403   -4.8299   25.6863 C.ar    1  UNL1        0.0000
     24 C           8.4419   -6.2566   26.0382 C.ar    1  UNL1        0.0000
     25 C           9.0756   -6.5857   27.3574 C.ar    1  UNL1        0.0000
     26 C           9.4077   -5.4882   28.3245 C.ar    1  UNL1        0.0000
     27 C           9.1061   -4.0616   27.9724 C.ar    1  UNL1        0.0000
     28 C           8.4724   -3.7326   26.6534 C.ar    1  UNL1        0.0000
     29 C          -1.0008    2.8910   21.3417 C.3     1  UNL1        0.1180
     30 C          -2.2312    3.2681   20.5709 C.ar    1  UNL1        0.0693
     31 C          -2.2966    4.2523   19.4408 C.ar    1  UNL1        0.0379
     32 C          -3.7180    4.3196   18.9665 C.ar    1  UNL1        0.1211
     33 N          -4.5311    3.3770   19.8033 N.ar    1  UNL1       -0.1713
     34 N          -3.6122    2.7271   20.7950 N.ar    1  UNL1       -0.2784
     35 H          -3.8702    2.0623   21.4737 H       1  UNL1        0.1886
@<TRIPOS>BOND
     1    14    15    2
     2    15    16    2
     3    15    12    1
     4    12     1    1
     5     1     2   ar
     6     2     3   ar
     7     3     4   ar
     8     4     5   ar
     9     5     6   ar
    10     5     7    1
    11     7     8    1
    12     8     9    1
    13     9    29    1
    14    29    30    1
    15    30    31   ar
    16    31    32   ar
    17    32    33   ar
    18    33    34   ar
    19     9    10    1
    20    10    11    1
    21    15    17    1
    22    17    18   ar
    23    18    19   ar
    24    19    20   ar
    25    20    23    1
    26    23    24   ar
    27    24    25   ar
    28    25    26   ar
    29    26    27   ar
    30    27    28   ar
    31    20    21   ar
    32    21    22   ar
    33     6     1   ar
    34    34    30   ar
    35    22    17   ar
    36    11     4    1
    37    28    23   ar
    38    12    13    1
    39    34    35    1
@<TRIPOS>MOLECULE
*****
 35 39 0 0 0
SMALL
GASTEIGER

@<TRIPOS>ATOM
      1 C           7.4385   -4.9990   24.1975 C.ar    1  UNL1        0.0644
      2 C           8.3779   -5.1217   23.0345 C.ar    1  UNL1        0.0155
      3 C           8.0355   -4.4795   21.7228 C.ar    1  UNL1       -0.0032
      4 C           6.7536   -3.7147   21.5742 C.ar    1  UNL1       -0.0246
      5 C           5.8144   -3.5921   22.7372 C.ar    1  UNL1       -0.0234
      6 C           6.1567   -4.2342   24.0488 C.ar    1  UNL1        0.0113
      7 C           4.4955   -2.8805   22.8032 C.3     1  UNL1        0.0434
      8 C           3.7903   -2.1158   21.7224 C.3     1  UNL1        0.0771
      9 N           4.2297   -1.8739   20.3088 N.3     1  UNL1       -0.2671
     10 C           5.4829   -2.3369   19.6267 C.3     1  UNL1        0.0771
     11 C           6.6062   -3.1561   20.1899 C.3     1  UNL1        0.0434
     12 N           7.7810   -5.6412   25.5090 N.pl3   1  UNL1       -0.2150
     13 H           8.2374   -6.5134   25.5258 H       1  UNL1        0.1737
     14 O           8.4979   -3.9334   26.5433 O.2     1  UNL1       -0.1499
     15 S           7.4282   -4.9544   26.7951 S.O2    1  UNL1        0.0736
     16 O           6.3585   -5.9754   27.0469 O.2     1  UNL1       -0.1499
     17 C           7.0754   -4.2676   28.0811 C.ar    1  UNL1        0.1252
     18 C           7.0647   -5.0414   29.3662 C.ar    1  UNL1        0.0202
     19 C           6.7119   -4.3545   30.6521 C.ar    1  UNL1        0.0014
     20 C           6.3697   -2.8941   30.6532 C.ar    1  UNL1        0.0001
     21 C           6.3804   -2.1203   29.3682 C.ar    1  UNL1        0.0014
     22 C           6.7332   -2.8071   28.0821 C.ar    1  UNL1        0.0202
     23 C           6.0169   -2.2072   31.9392 C.ar    1  UNL1        0.0000
     24 C           6.9873   -1.2536   32.5708 C.ar    1  UNL1        0.0000
     25 C           6.6346   -0.5667   33.8568 C.ar    1  UNL1        0.0000
     26 C           5.3114   -0.8334   34.5111 C.ar    1  UNL1        0.0000
     27 C           4.3410   -1.7871   33.8794 C.ar    1  UNL1        0.0000
     28 C           4.6938   -2.4739   32.5936 C.ar    1  UNL1        0.0000
     29 C           3.2920   -1.0616   19.4657 C.3     1  UNL1        0.1180
     30 C           2.1672   -0.3065   20.1098 C.ar    1  UNL1        0.0693
     31 C           2.2908    0.9802   20.8707 C.ar    1  UNL1        0.0379
     32 C           0.9213    1.3763   21.3371 C.ar    1  UNL1        0.1211
     33 N          -0.0488    0.3344   20.8646 N.ar    1  UNL1       -0.1713
     34 N           0.7212   -0.7057   20.1060 N.ar    1  UNL1       -0.2784
     35 H           0.3439   -1.5093   19.6803 H       1  UNL1        0.1886
@<TRIPOS>BOND
     1    14    15    2
     2    15    16    2
     3    15    12    1
     4    12     1    1
     5     1     2   ar
     6     2     3   ar
     7     3     4   ar
     8     4     5   ar
     9     5     6   ar
    10     5     7    1
    11     7     8    1
    12     8     9    1
    13     9    29    1
    14    29    30    1
    15    30    31   ar
    16    31    32   ar
    17    32    33   ar
    18    33    34   ar
    19     9    10    1
    20    10    11    1
    21    15    17    1
    22    17    18   ar
    23    18    19   ar
    24    19    20   ar
    25    20    23    1
    26    23    24   ar
    27    24    25   ar
    28    25    26   ar
    29    26    27   ar
    30    27    28   ar
    31    20    21   ar
    32    21    22   ar
    33     6     1   ar
    34    34    30   ar
    35    22    17   ar
    36    11     4    1
    37    28    23   ar
    38    12    13    1
    39    34    35    1
