@<TRIPOS>MOLECULE
*****
 32 35 0 0 0
SMALL
GASTEIGER

@<TRIPOS>ATOM
      1 C           8.4487   -5.3856   25.6843 C.ar    1  UNL1        0.1803
      2 C           8.3789   -6.6175   24.8313 C.ar    1  UNL1        0.0516
      3 C           8.3085   -7.9713   25.4733 C.ar    1  UNL1        0.0019
      4 C           8.3078   -8.0933   26.9683 C.ar    1  UNL1       -0.0023
      5 C           8.3775   -6.8614   27.8213 C.ar    1  UNL1        0.0019
      6 C           8.4480   -5.5075   27.1793 C.ar    1  UNL1        0.0516
      7 S           8.5191   -4.0318   25.0422 S.O     1  UNL1        0.0474
      8 O           9.2053   -2.9010   25.7496 O.co2   1  UNL1       -0.6776
      9 N           6.6716   -3.3628   20.9939 N.3     1  UNL1       -0.2723
     10 C           8.1639   -3.3999   21.1404 C.3     1  UNL1        0.0773
     11 C           8.7798   -3.6229   22.4899 C.3     1  UNL1        0.0767
     12 C           7.9033   -3.8088   23.6928 C.3     1  UNL1        0.2101
     13 C           6.4108   -3.7717   23.5463 C.3     1  UNL1        0.0767
     14 C           5.7950   -3.5487   22.1969 C.3     1  UNL1        0.0773
     15 C           6.0558   -3.1398   19.6445 C.3     1  UNL1        0.0721
     16 C           3.4772   -2.8349   19.5543 C.3     1  UNL1        0.0014
     17 C           4.6926   -3.6880   19.3423 C.3     1  UNL1        0.0160
     18 C           4.5449   -5.0893   18.8280 C.3     1  UNL1        0.0014
     19 C           8.2374   -9.4472   27.6104 C.3     1  UNL1        0.1167
     20 N           6.9131  -10.1330   27.7711 N.am    1  UNL1       -0.2944
     21 C           6.8582  -11.6158   27.9906 C.2     1  UNL1        0.2808
     22 O           8.1275  -12.4128   28.0494 O.2     1  UNL1       -0.2668
     23 H           6.0800   -9.6099   27.7325 H       1  UNL1        0.1501
     24 C           5.5339  -12.3016   28.1513 C.ar    1  UNL1        0.1984
     25 C           4.4377  -11.8934   29.0904 C.ar    1  UNL1        0.0453
     26 C           3.2996  -12.8556   28.9207 C.ar    1  UNL1        0.0409
     27 C           1.9564  -12.9480   29.5819 C.ar    1  UNL1        0.0238
     28 C           1.0059  -14.0434   29.1991 C.ar    1  UNL1        0.0991
     29 N           1.3986  -15.0464   28.1551 N.ar    1  UNL1       -0.2391
     30 C           2.7418  -14.9539   27.4940 C.ar    1  UNL1        0.1362
     31 C           3.6923  -13.8585   27.8767 C.ar    1  UNL1        0.1646
     32 O           5.0731  -13.5162   27.4013 O.2     1  UNL1       -0.4473
@<TRIPOS>UNITY_ATOM_ATTR
7 1
charge 1
8 1
charge -1
@<TRIPOS>BOND
     1    16    17    1
     2    17    18    1
     3    17    15    1
     4    15     9    1
     5     9    10    1
     6    10    11    1
     7    11    12    1
     8    12     7    1
     9     7     8    2
    10     7     1    1
    11     1     2   ar
    12     2     3   ar
    13     3     4   ar
    14     4    19    1
    15    19    20    1
    16    20    21   am
    17    21    22    2
    18    21    24    1
    19    24    25   ar
    20    25    26   ar
    21    26    27   ar
    22    27    28   ar
    23    28    29   ar
    24    29    30   ar
    25    30    31   ar
    26    31    32   ar
    27     4     5   ar
    28     5     6   ar
    29    12    13    1
    30    13    14    1
    31    14     9    1
    32     6     1   ar
    33    32    24   ar
    34    31    26   ar
    35    20    23    1
@<TRIPOS>MOLECULE
*****
 32 35 0 0 0
SMALL
GASTEIGER

@<TRIPOS>ATOM
      1 C           8.6183   -5.5216   27.8432 C.ar    1  UNL1        0.1803
      2 C           7.7545   -6.1579   26.7947 C.ar    1  UNL1        0.0516
      3 C           7.5805   -7.6475   26.7691 C.ar    1  UNL1        0.0019
      4 C           8.2702   -8.5009   27.7918 C.ar    1  UNL1       -0.0023
      5 C           9.1340   -7.8647   28.8402 C.ar    1  UNL1        0.0019
      6 C           9.3080   -6.3750   28.8659 C.ar    1  UNL1        0.0516
      7 S           8.7923   -4.0320   27.8688 S.O     1  UNL1        0.0474
      8 O           9.5309   -3.3440   26.7593 O.co2   1  UNL1       -0.6776
      9 N           7.0986   -1.6272   31.2744 N.3     1  UNL1       -0.2723
     10 C           8.5071   -2.1381   31.3447 C.3     1  UNL1        0.0773
     11 C           9.0718   -2.9397   30.2095 C.3     1  UNL1        0.0767
     12 C           8.2278   -3.2304   29.0040 C.3     1  UNL1        0.2101
     13 C           6.8192   -2.7195   28.9337 C.3     1  UNL1        0.0767
     14 C           6.2546   -1.9180   30.0689 C.3     1  UNL1        0.0773
     15 C           6.5340   -0.8257   32.4096 C.3     1  UNL1        0.0721
     16 C           5.1083   -0.7122   34.5786 C.3     1  UNL1        0.0014
     17 C           5.5355   -1.4455   33.3417 C.3     1  UNL1        0.0160
     18 C           4.9641   -2.7985   33.0369 C.3     1  UNL1        0.0014
     19 C           8.0962   -9.9906   27.7661 C.3     1  UNL1        0.1167
     20 N           6.7209  -10.5862   27.8291 N.am    1  UNL1       -0.2944
     21 C           6.5474  -12.0399   28.1555 C.2     1  UNL1        0.2808
     22 O           7.7491  -12.8980   28.4190 O.2     1  UNL1       -0.2668
     23 H           5.9322  -10.0230   27.6561 H       1  UNL1        0.1501
     24 C           5.1721  -12.6355   28.2184 C.ar    1  UNL1        0.1984
     25 C           3.9191  -11.9195   28.6275 C.ar    1  UNL1        0.0453
     26 C           2.7810  -12.8931   28.5452 C.ar    1  UNL1        0.0409
     27 C           1.3152  -12.7500   28.8297 C.ar    1  UNL1        0.0238
     28 C           0.3990  -13.9247   28.6542 C.ar    1  UNL1        0.0991
     29 N           0.9486  -15.2424   28.1943 N.ar    1  UNL1       -0.2391
     30 C           2.4144  -15.3855   27.9099 C.ar    1  UNL1        0.1362
     31 C           3.3306  -14.2109   28.0853 C.ar    1  UNL1        0.1646
     32 O           4.8084  -14.0516   27.8834 O.2     1  UNL1       -0.4473
@<TRIPOS>UNITY_ATOM_ATTR
7 1
charge 1
8 1
charge -1
@<TRIPOS>BOND
     1    16    17    1
     2    17    18    1
     3    17    15    1
     4    15     9    1
     5     9    10    1
     6    10    11    1
     7    11    12    1
     8    12     7    1
     9     7     8    2
    10     7     1    1
    11     1     2   ar
    12     2     3   ar
    13     3     4   ar
    14     4    19    1
    15    19    20    1
    16    20    21   am
    17    21    22    2
    18    21    24    1
    19    24    25   ar
    20    25    26   ar
    21    26    27   ar
    22    27    28   ar
    23    28    29   ar
    24    29    30   ar
    25    30    31   ar
    26    31    32   ar
    27     4     5   ar
    28     5     6   ar
    29    12    13    1
    30    13    14    1
    31    14     9    1
    32     6     1   ar
    33    32    24   ar
    34    31    26   ar
    35    20    23    1
@<TRIPOS>MOLECULE
*****
 32 35 0 0 0
SMALL
GASTEIGER

@<TRIPOS>ATOM
      1 C           5.5872   -1.2502   32.9826 C.ar    1  UNL1        0.1803
      2 C           6.9367   -0.7237   32.5927 C.ar    1  UNL1        0.0516
      3 C           7.9930   -1.6643   32.0932 C.ar    1  UNL1        0.0019
      4 C           7.6999   -3.1313   31.9835 C.ar    1  UNL1       -0.0023
      5 C           6.3506   -3.6577   32.3733 C.ar    1  UNL1        0.0019
      6 C           5.2942   -2.7172   32.8729 C.ar    1  UNL1        0.0516
      7 S           4.5310   -0.3096   33.4821 S.O     1  UNL1        0.0474
      8 O           4.5645    0.1695   34.9031 O.co2   1  UNL1       -0.6776
      9 N           1.2614    1.0749   30.7175 N.3     1  UNL1       -0.2723
     10 C           2.0880   -0.1246   30.3599 C.3     1  UNL1        0.0773
     11 C           3.1779   -0.5861   31.2815 C.3     1  UNL1        0.0767
     12 C           3.4411    0.1519   32.5606 C.3     1  UNL1        0.2101
     13 C           2.6144    1.3514   32.9181 C.3     1  UNL1        0.0767
     14 C           1.5246    1.8129   31.9966 C.3     1  UNL1        0.0773
     15 C           0.1716    1.5364   29.7960 C.3     1  UNL1        0.0721
     16 C          -1.1764   -0.3931   28.6958 C.3     1  UNL1        0.0014
     17 C          -0.1812    0.7238   28.5854 C.3     1  UNL1        0.0160
     18 C           0.4611    1.0282   27.2646 C.3     1  UNL1        0.0014
     19 C           8.7563   -4.0718   31.4839 C.3     1  UNL1        0.1167
     20 N           8.8606   -4.3722   30.0180 N.am    1  UNL1       -0.2944
     21 C           7.9919   -5.4306   29.4056 C.2     1  UNL1        0.2808
     22 O           7.0188   -6.1886   30.2591 O.2     1  UNL1       -0.2668
     23 H           9.4993   -3.8746   29.4578 H       1  UNL1        0.1501
     24 C           8.0962   -5.7309   27.9397 C.ar    1  UNL1        0.1984
     25 C           8.7781   -6.9195   27.3295 C.ar    1  UNL1        0.0453
     26 C           8.6403   -6.8186   25.8393 C.ar    1  UNL1        0.0409
     27 C           9.1141   -7.7042   24.7252 C.ar    1  UNL1        0.0238
     28 C           8.8210   -7.3388   23.3003 C.ar    1  UNL1        0.0991
     29 N           8.0539   -6.0878   22.9894 N.ar    1  UNL1       -0.2391
     30 C           7.5800   -5.2022   24.1035 C.ar    1  UNL1        0.1362
     31 C           7.8732   -5.5676   25.5284 C.ar    1  UNL1        0.1646
     32 O           7.5370   -4.8954   26.8265 O.2     1  UNL1       -0.4473
@<TRIPOS>UNITY_ATOM_ATTR
7 1
charge 1
8 1
charge -1
@<TRIPOS>BOND
     1    16    17    1
     2    17    18    1
     3    17    15    1
     4    15     9    1
     5     9    10    1
     6    10    11    1
     7    11    12    1
     8    12     7    1
     9     7     8    2
    10     7     1    1
    11     1     2   ar
    12     2     3   ar
    13     3     4   ar
    14     4    19    1
    15    19    20    1
    16    20    21   am
    17    21    22    2
    18    21    24    1
    19    24    25   ar
    20    25    26   ar
    21    26    27   ar
    22    27    28   ar
    23    28    29   ar
    24    29    30   ar
    25    30    31   ar
    26    31    32   ar
    27     4     5   ar
    28     5     6   ar
    29    12    13    1
    30    13    14    1
    31    14     9    1
    32     6     1   ar
    33    32    24   ar
    34    31    26   ar
    35    20    23    1
@<TRIPOS>MOLECULE
*****
 32 35 0 0 0
SMALL
GASTEIGER

@<TRIPOS>ATOM
      1 C           7.9030   -6.3629   25.2014 C.ar    1  UNL1        0.1803
      2 C           8.6253   -6.9622   24.0312 C.ar    1  UNL1        0.0516
      3 C           8.6870   -6.2212   22.7285 C.ar    1  UNL1        0.0019
      4 C           8.0265   -4.8810   22.5959 C.ar    1  UNL1       -0.0023
      5 C           7.3043   -4.2817   23.7660 C.ar    1  UNL1        0.0019
      6 C           7.2425   -5.0227   25.0688 C.ar    1  UNL1        0.0516
      7 S           7.8413   -7.1039   26.5042 S.O     1  UNL1        0.0474
      8 O           7.7407   -8.6005   26.5117 O.co2   1  UNL1       -0.6776
      9 N           7.9579   -4.8369   30.3897 N.3     1  UNL1       -0.2723
     10 C           6.6692   -4.9610   29.6322 C.3     1  UNL1        0.0773
     11 C           6.6303   -5.7167   28.3370 C.3     1  UNL1        0.0767
     12 C           7.8801   -6.3482   27.7993 C.3     1  UNL1        0.2101
     13 C           9.1689   -6.2240   28.5568 C.3     1  UNL1        0.0767
     14 C           9.2077   -5.4684   29.8520 C.3     1  UNL1        0.0773
     15 C           7.9967   -4.0812   31.6848 C.3     1  UNL1        0.0721
     16 C           7.5328   -1.5525   31.3097 C.3     1  UNL1        0.0014
     17 C           7.1215   -2.8785   31.8779 C.3     1  UNL1        0.0160
     18 C           5.8350   -3.0016   32.6393 C.3     1  UNL1        0.0014
     19 C           8.0883   -4.1400   21.2931 C.3     1  UNL1        0.1167
     20 N           7.0373   -3.1237   20.9578 N.am    1  UNL1       -0.2944
     21 C           5.7851   -3.5458   20.2480 C.2     1  UNL1        0.2808
     22 O           5.5839   -4.9843   19.8736 O.2     1  UNL1       -0.2668
     23 H           7.1694   -2.1795   21.2036 H       1  UNL1        0.1501
     24 C           4.7341   -2.5294   19.9127 C.ar    1  UNL1        0.1984
     25 C           3.4120   -2.3677   20.6026 C.ar    1  UNL1        0.0453
     26 C           2.6815   -1.2346   19.9449 C.ar    1  UNL1        0.0409
     27 C           1.3360   -0.6238   20.2027 C.ar    1  UNL1        0.0238
     28 C           0.8612    0.5257   19.3642 C.ar    1  UNL1        0.0991
     29 N           1.7318    1.0643   18.2678 N.ar    1  UNL1       -0.2391
     30 C           3.0773    0.4534   18.0100 C.ar    1  UNL1        0.1362
     31 C           3.5521   -0.6961   18.8486 C.ar    1  UNL1        0.1646
     32 O           4.8207   -1.4963   18.8287 O.2     1  UNL1       -0.4473
@<TRIPOS>UNITY_ATOM_ATTR
7 1
charge 1
8 1
charge -1
@<TRIPOS>BOND
     1    16    17    1
     2    17    18    1
     3    17    15    1
     4    15     9    1
     5     9    10    1
     6    10    11    1
     7    11    12    1
     8    12     7    1
     9     7     8    2
    10     7     1    1
    11     1     2   ar
    12     2     3   ar
    13     3     4   ar
    14     4    19    1
    15    19    20    1
    16    20    21   am
    17    21    22    2
    18    21    24    1
    19    24    25   ar
    20    25    26   ar
    21    26    27   ar
    22    27    28   ar
    23    28    29   ar
    24    29    30   ar
    25    30    31   ar
    26    31    32   ar
    27     4     5   ar
    28     5     6   ar
    29    12    13    1
    30    13    14    1
    31    14     9    1
    32     6     1   ar
    33    32    24   ar
    34    31    26   ar
    35    20    23    1
@<TRIPOS>MOLECULE
*****
 32 35 0 0 0
SMALL
GASTEIGER

@<TRIPOS>ATOM
      1 C           3.2759   -1.9939   19.3267 C.ar    1  UNL1        0.1803
      2 C           3.7863   -1.2027   18.1589 C.ar    1  UNL1        0.0516
      3 C           3.2996    0.1978   17.9317 C.ar    1  UNL1        0.0019
      4 C           2.3025    0.8072   18.8722 C.ar    1  UNL1       -0.0023
      5 C           1.7922    0.0161   20.0399 C.ar    1  UNL1        0.0019
      6 C           2.2789   -1.3845   20.2672 C.ar    1  UNL1        0.0516
      7 S           3.7626   -3.3944   19.5539 S.O     1  UNL1        0.0474
      8 O           3.2027   -4.5241   18.7413 O.co2   1  UNL1       -0.6776
      9 N           6.9024   -4.2068   22.6734 N.3     1  UNL1       -0.2723
     10 C           7.2745   -4.1944   21.2204 C.3     1  UNL1        0.0773
     11 C           6.2278   -3.9235   20.1804 C.3     1  UNL1        0.0767
     12 C           4.8092   -3.6652   20.5937 C.3     1  UNL1        0.2101
     13 C           4.4372   -3.6777   22.0468 C.3     1  UNL1        0.0767
     14 C           5.4838   -3.9485   23.0866 C.3     1  UNL1        0.0773
     15 C           7.9490   -4.4776   23.7132 C.3     1  UNL1        0.0721
     16 C           8.4032   -7.0206   23.9906 C.3     1  UNL1        0.0014
     17 C           7.8790   -5.7271   24.5402 C.3     1  UNL1        0.0160
     18 C           7.2848   -5.6831   25.9167 C.3     1  UNL1        0.0014
     19 C           1.8158    2.2078   18.6449 C.3     1  UNL1        0.1167
     20 N           0.3550    2.5239   18.7715 N.am    1  UNL1       -0.2944
     21 C          -0.2037    2.9737   20.0889 C.2     1  UNL1        0.2808
     22 O           0.6985    3.1073   21.2797 O.2     1  UNL1       -0.2668
     23 H          -0.2372    2.4362   17.9899 H       1  UNL1        0.1501
     24 C          -1.6645    3.2898   20.2154 C.ar    1  UNL1        0.1984
     25 C          -2.5321    3.8909   19.1496 C.ar    1  UNL1        0.0453
     26 C          -3.9180    4.0330   19.7055 C.ar    1  UNL1        0.0409
     27 C          -5.1886    4.5634   19.1104 C.ar    1  UNL1        0.0238
     28 C          -6.4482    4.5805   19.9247 C.ar    1  UNL1        0.0991
     29 N          -6.4372    4.0672   21.3341 N.ar    1  UNL1       -0.2391
     30 C          -5.1666    3.5367   21.9292 C.ar    1  UNL1        0.1362
     31 C          -3.9070    3.5196   21.1149 C.ar    1  UNL1        0.1646
     32 O          -2.5143    3.0603   21.4300 O.2     1  UNL1       -0.4473
@<TRIPOS>UNITY_ATOM_ATTR
7 1
charge 1
8 1
charge -1
@<TRIPOS>BOND
     1    16    17    1
     2    17    18    1
     3    17    15    1
     4    15     9    1
     5     9    10    1
     6    10    11    1
     7    11    12    1
     8    12     7    1
     9     7     8    2
    10     7     1    1
    11     1     2   ar
    12     2     3   ar
    13     3     4   ar
    14     4    19    1
    15    19    20    1
    16    20    21   am
    17    21    22    2
    18    21    24    1
    19    24    25   ar
    20    25    26   ar
    21    26    27   ar
    22    27    28   ar
    23    28    29   ar
    24    29    30   ar
    25    30    31   ar
    26    31    32   ar
    27     4     5   ar
    28     5     6   ar
    29    12    13    1
    30    13    14    1
    31    14     9    1
    32     6     1   ar
    33    32    24   ar
    34    31    26   ar
    35    20    23    1
@<TRIPOS>MOLECULE
*****
 32 35 0 0 0
SMALL
GASTEIGER

@<TRIPOS>ATOM
      1 C           3.3366   -1.9706   19.3638 C.ar    1  UNL1        0.1803
      2 C           2.3454   -1.2967   20.2658 C.ar    1  UNL1        0.0516
      3 C           1.9270    0.1182   19.9963 C.ar    1  UNL1        0.0019
      4 C           2.4996    0.8595   18.8246 C.ar    1  UNL1       -0.0023
      5 C           3.4907    0.1857   17.9226 C.ar    1  UNL1        0.0019
      6 C           3.9092   -1.2293   18.1921 C.ar    1  UNL1        0.0516
      7 S           3.7550   -3.3855   19.6333 S.O     1  UNL1        0.0474
      8 O           3.1099   -4.5140   18.8847 O.co2   1  UNL1       -0.6776
      9 N           6.9459   -4.2451   22.6878 N.3     1  UNL1       -0.2723
     10 C           5.5443   -3.9466   23.1310 C.3     1  UNL1        0.0773
     11 C           4.4806   -3.6601   22.1128 C.3     1  UNL1        0.0767
     12 C           4.8186   -3.6720   20.6515 C.3     1  UNL1        0.2101
     13 C           6.2203   -3.9705   20.2082 C.3     1  UNL1        0.0767
     14 C           7.2838   -4.2570   21.2264 C.3     1  UNL1        0.0773
     15 C           8.0094   -4.5316   23.7059 C.3     1  UNL1        0.0721
     16 C           8.4377   -7.0799   23.9757 C.3     1  UNL1        0.0014
     17 C           7.9382   -5.7803   24.5339 C.3     1  UNL1        0.0160
     18 C           7.3674   -5.7294   25.9201 C.3     1  UNL1        0.0014
     19 C           2.0811    2.2745   18.5551 C.3     1  UNL1        0.1167
     20 N           0.6280    2.6086   18.3915 N.am    1  UNL1       -0.2944
     21 C          -0.1800    3.0428   19.5784 C.2     1  UNL1        0.2808
     22 O           0.4652    3.1429   20.9288 O.2     1  UNL1       -0.2668
     23 H           0.2045    2.5429   17.5052 H       1  UNL1        0.1501
     24 C          -1.6331    3.3769   19.4148 C.ar    1  UNL1        0.1984
     25 C          -2.2361    4.1606   18.2869 C.ar    1  UNL1        0.0453
     26 C          -3.7141    4.2540   18.5254 C.ar    1  UNL1        0.0409
     27 C          -4.8173    4.9063   17.7461 C.ar    1  UNL1        0.0238
     28 C          -6.2309    4.8327   18.2421 C.ar    1  UNL1        0.0991
     29 N          -6.5414    4.1067   19.5174 N.ar    1  UNL1       -0.2391
     30 C          -5.4382    3.4543   20.2968 C.ar    1  UNL1        0.1362
     31 C          -4.0246    3.5280   19.8008 C.ar    1  UNL1        0.1646
     32 O          -2.7385    2.9859   20.3504 O.2     1  UNL1       -0.4473
@<TRIPOS>UNITY_ATOM_ATTR
7 1
charge 1
8 1
charge -1
@<TRIPOS>BOND
     1    16    17    1
     2    17    18    1
     3    17    15    1
     4    15     9    1
     5     9    10    1
     6    10    11    1
     7    11    12    1
     8    12     7    1
     9     7     8    2
    10     7     1    1
    11     1     2   ar
    12     2     3   ar
    13     3     4   ar
    14     4    19    1
    15    19    20    1
    16    20    21   am
    17    21    22    2
    18    21    24    1
    19    24    25   ar
    20    25    26   ar
    21    26    27   ar
    22    27    28   ar
    23    28    29   ar
    24    29    30   ar
    25    30    31   ar
    26    31    32   ar
    27     4     5   ar
    28     5     6   ar
    29    12    13    1
    30    13    14    1
    31    14     9    1
    32     6     1   ar
    33    32    24   ar
    34    31    26   ar
    35    20    23    1
@<TRIPOS>MOLECULE
*****
 32 35 0 0 0
SMALL
GASTEIGER

@<TRIPOS>ATOM
      1 C           0.0489    2.3079   22.9844 C.ar    1  UNL1        0.1803
      2 C          -0.9830    3.2520   23.5267 C.ar    1  UNL1        0.0516
      3 C          -1.3567    3.2014   24.9784 C.ar    1  UNL1        0.0019
      4 C          -0.6986    2.2067   25.8881 C.ar    1  UNL1       -0.0023
      5 C           0.3333    1.2626   25.3460 C.ar    1  UNL1        0.0019
      6 C           0.7071    1.3132   23.8941 C.ar    1  UNL1        0.0516
      7 S           0.4227    2.3585   21.5327 S.O     1  UNL1        0.0474
      8 O          -0.0550    3.4922   20.6743 O.co2   1  UNL1       -0.6776
      9 N           2.9767   -0.8906   19.7523 N.3     1  UNL1       -0.2723
     10 C           3.6035    0.3983   20.1947 C.3     1  UNL1        0.0773
     11 C           2.7521    1.4814   20.7882 C.3     1  UNL1        0.0767
     12 C           1.2740    1.2755   20.9392 C.3     1  UNL1        0.2101
     13 C           0.6473   -0.0135   20.4967 C.3     1  UNL1        0.0767
     14 C           1.4986   -1.0965   19.9033 C.3     1  UNL1        0.0773
     15 C           3.8281   -1.9736   19.1588 C.3     1  UNL1        0.0721
     16 C           4.5069   -3.4073   21.2165 C.3     1  UNL1        0.0014
     17 C           3.9252   -3.3078   19.8374 C.3     1  UNL1        0.0160
     18 C           3.4407   -4.5425   19.1369 C.3     1  UNL1        0.0014
     19 C          -1.0723    2.1561   27.3399 C.3     1  UNL1        0.1167
     20 N          -0.0094    1.9710   28.3820 N.am    1  UNL1       -0.2944
     21 C           0.1780    0.6326   29.0327 C.2     1  UNL1        0.2808
     22 O          -0.6975   -0.5208   28.6413 O.2     1  UNL1       -0.2668
     23 H           0.5652    2.7280   28.6389 H       1  UNL1        0.1501
     24 C           1.2409    0.4475   30.0748 C.ar    1  UNL1        0.1984
     25 C           2.3304   -0.5833   30.0496 C.ar    1  UNL1        0.0453
     26 C           3.1638   -0.4072   31.2842 C.ar    1  UNL1        0.0409
     27 C           4.3715   -1.1373   31.7925 C.ar    1  UNL1        0.0238
     28 C           5.0048   -0.7278   33.0891 C.ar    1  UNL1        0.0991
     29 N           4.4305    0.4118   33.8774 N.ar    1  UNL1       -0.2391
     30 C           3.2228    1.1419   33.3691 C.ar    1  UNL1        0.1362
     31 C           2.5895    0.7324   32.0725 C.ar    1  UNL1        0.1646
     32 O           1.4011    1.2606   31.3250 O.2     1  UNL1       -0.4473
@<TRIPOS>UNITY_ATOM_ATTR
7 1
charge 1
8 1
charge -1
@<TRIPOS>BOND
     1    16    17    1
     2    17    18    1
     3    17    15    1
     4    15     9    1
     5     9    10    1
     6    10    11    1
     7    11    12    1
     8    12     7    1
     9     7     8    2
    10     7     1    1
    11     1     2   ar
    12     2     3   ar
    13     3     4   ar
    14     4    19    1
    15    19    20    1
    16    20    21   am
    17    21    22    2
    18    21    24    1
    19    24    25   ar
    20    25    26   ar
    21    26    27   ar
    22    27    28   ar
    23    28    29   ar
    24    29    30   ar
    25    30    31   ar
    26    31    32   ar
    27     4     5   ar
    28     5     6   ar
    29    12    13    1
    30    13    14    1
    31    14     9    1
    32     6     1   ar
    33    32    24   ar
    34    31    26   ar
    35    20    23    1
@<TRIPOS>MOLECULE
*****
 32 35 0 0 0
SMALL
GASTEIGER

@<TRIPOS>ATOM
      1 C           4.8593   -1.9439   18.7508 C.ar    1  UNL1        0.1803
      2 C           4.6579   -3.4147   18.9660 C.ar    1  UNL1        0.0516
      3 C           5.6493   -4.1969   19.7756 C.ar    1  UNL1        0.0019
      4 C           6.8420   -3.5083   20.3700 C.ar    1  UNL1       -0.0023
      5 C           7.0433   -2.0376   20.1549 C.ar    1  UNL1        0.0019
      6 C           6.0520   -1.2553   19.3452 C.ar    1  UNL1        0.0516
      7 S           3.8680   -1.1618   17.9412 S.O     1  UNL1        0.0474
      8 O           3.9423   -1.1798   16.4432 O.co2   1  UNL1       -0.6776
      9 N           0.6709    1.2388   20.0067 N.3     1  UNL1       -0.2723
     10 C           1.4818    1.8586   18.9075 C.3     1  UNL1        0.0773
     11 C           2.5475    1.0584   18.2190 C.3     1  UNL1        0.0767
     12 C           2.8023   -0.3616   18.6297 C.3     1  UNL1        0.2101
     13 C           1.9914   -0.9814   19.7290 C.3     1  UNL1        0.0767
     14 C           0.9257   -0.1812   20.4174 C.3     1  UNL1        0.0773
     15 C          -0.3947    2.0389   20.6952 C.3     1  UNL1        0.0721
     16 C           1.3128    2.7682   22.5125 C.3     1  UNL1        0.0014
     17 C          -0.0933    2.7311   21.9913 C.3     1  UNL1        0.0160
     18 C          -1.1979    3.3863   22.7663 C.3     1  UNL1        0.0014
     19 C           7.8333   -4.2906   21.1797 C.3     1  UNL1        0.1167
     20 N           7.6905   -4.3662   22.6709 N.am    1  UNL1       -0.2944
     21 C           8.0158   -5.6408   23.3918 C.2     1  UNL1        0.2808
     22 O           8.4839   -6.8396   22.6214 O.2     1  UNL1       -0.2668
     23 H           7.3833   -3.5793   23.1766 H       1  UNL1        0.1501
     24 C           7.8730   -5.7164   24.8831 C.ar    1  UNL1        0.1984
     25 C           6.8651   -4.9757   25.7110 C.ar    1  UNL1        0.0453
     26 C           7.0822   -5.3476   27.1479 C.ar    1  UNL1        0.0409
     27 C           6.3875   -4.9278   28.4093 C.ar    1  UNL1        0.0238
     28 C           6.8349   -5.4786   29.7308 C.ar    1  UNL1        0.0991
     29 N           7.9770   -6.4492   29.7909 N.ar    1  UNL1       -0.2391
     30 C           8.6717   -6.8689   28.5295 C.ar    1  UNL1        0.1362
     31 C           8.2243   -6.3181   27.2080 C.ar    1  UNL1        0.1646
     32 O           8.7131   -6.5461   25.8083 O.2     1  UNL1       -0.4473
@<TRIPOS>UNITY_ATOM_ATTR
7 1
charge 1
8 1
charge -1
@<TRIPOS>BOND
     1    16    17    1
     2    17    18    1
     3    17    15    1
     4    15     9    1
     5     9    10    1
     6    10    11    1
     7    11    12    1
     8    12     7    1
     9     7     8    2
    10     7     1    1
    11     1     2   ar
    12     2     3   ar
    13     3     4   ar
    14     4    19    1
    15    19    20    1
    16    20    21   am
    17    21    22    2
    18    21    24    1
    19    24    25   ar
    20    25    26   ar
    21    26    27   ar
    22    27    28   ar
    23    28    29   ar
    24    29    30   ar
    25    30    31   ar
    26    31    32   ar
    27     4     5   ar
    28     5     6   ar
    29    12    13    1
    30    13    14    1
    31    14     9    1
    32     6     1   ar
    33    32    24   ar
    34    31    26   ar
    35    20    23    1
@<TRIPOS>MOLECULE
*****
 32 35 0 0 0
SMALL
GASTEIGER

@<TRIPOS>ATOM
      1 C           6.9607   -4.8982   29.8170 C.ar    1  UNL1        0.1803
      2 C           7.3737   -6.1397   29.0832 C.ar    1  UNL1        0.0516
      3 C           7.4082   -6.1481   27.5837 C.ar    1  UNL1        0.0019
      4 C           7.0297   -4.9152   26.8178 C.ar    1  UNL1       -0.0023
      5 C           6.6167   -3.6738   27.5515 C.ar    1  UNL1        0.0019
      6 C           6.5822   -3.6653   29.0511 C.ar    1  UNL1        0.0516
      7 S           6.9261   -4.8898   31.3165 S.O     1  UNL1        0.0474
      8 O           6.8712   -6.1840   32.0728 O.co2   1  UNL1       -0.6776
      9 N           6.9873   -0.9816   33.5465 N.3     1  UNL1       -0.2723
     10 C           8.2704   -1.5886   33.0617 C.3     1  UNL1        0.0773
     11 C           8.2501   -2.8914   32.3183 C.3     1  UNL1        0.0767
     12 C           6.9465   -3.5871   32.0598 C.3     1  UNL1        0.2101
     13 C           5.6633   -2.9800   32.5447 C.3     1  UNL1        0.0767
     14 C           5.6837   -1.6773   33.2879 C.3     1  UNL1        0.0773
     15 C           7.0076    0.3211   34.2897 C.3     1  UNL1        0.0721
     16 C           6.1608   -0.2014   36.6898 C.3     1  UNL1        0.0014
     17 C           6.0347    0.5633   35.4054 C.3     1  UNL1        0.0160
     18 C           4.9357    1.5701   35.2368 C.3     1  UNL1        0.0014
     19 C           7.0643   -4.9237   25.3182 C.3     1  UNL1        0.1167
     20 N           6.1550   -4.0178   24.5419 N.am    1  UNL1       -0.2944
     21 C           6.1956   -4.0200   23.0425 C.2     1  UNL1        0.2808
     22 O           7.1456   -4.9280   22.3194 O.2     1  UNL1       -0.2668
     23 H           5.5315   -3.4218   25.0166 H       1  UNL1        0.1501
     24 C           5.2863   -3.1141   22.2662 C.ar    1  UNL1        0.1984
     25 C           4.1854   -2.2702   22.8370 C.ar    1  UNL1        0.0453
     26 C           3.5369   -1.5276   21.7064 C.ar    1  UNL1        0.0409
     27 C           2.3994   -0.5506   21.6689 C.ar    1  UNL1        0.0238
     28 C           1.9620    0.0413   20.3619 C.ar    1  UNL1        0.0991
     29 N           2.6621   -0.3438   19.0925 N.ar    1  UNL1       -0.2391
     30 C           3.7996   -1.3208   19.1300 C.ar    1  UNL1        0.1362
     31 C           4.2370   -1.9127   20.4369 C.ar    1  UNL1        0.1646
     32 O           5.3182   -2.8932   20.7830 O.2     1  UNL1       -0.4473
@<TRIPOS>UNITY_ATOM_ATTR
7 1
charge 1
8 1
charge -1
@<TRIPOS>BOND
     1    16    17    1
     2    17    18    1
     3    17    15    1
     4    15     9    1
     5     9    10    1
     6    10    11    1
     7    11    12    1
     8    12     7    1
     9     7     8    2
    10     7     1    1
    11     1     2   ar
    12     2     3   ar
    13     3     4   ar
    14     4    19    1
    15    19    20    1
    16    20    21   am
    17    21    22    2
    18    21    24    1
    19    24    25   ar
    20    25    26   ar
    21    26    27   ar
    22    27    28   ar
    23    28    29   ar
    24    29    30   ar
    25    30    31   ar
    26    31    32   ar
    27     4     5   ar
    28     5     6   ar
    29    12    13    1
    30    13    14    1
    31    14     9    1
    32     6     1   ar
    33    32    24   ar
    34    31    26   ar
    35    20    23    1
