@<TRIPOS>MOLECULE
*****
 26 28 0 0 0
SMALL
GASTEIGER

@<TRIPOS>ATOM
      1 C          -6.8627  -19.1900   20.3206 C.ar    1  UNL1        0.0395
      2 C          -7.8186  -19.8549   19.3751 C.ar    1  UNL1        0.0063
      3 C          -9.2898  -19.5827   19.4814 C.ar    1  UNL1        0.0376
      4 C          -9.8051  -18.6456   20.5332 C.ar    1  UNL1        0.1453
      5 C          -8.8492  -17.9807   21.4788 C.ar    1  UNL1        0.0376
      6 C          -7.3780  -18.2529   21.3725 C.ar    1  UNL1        0.0063
      7 N          -2.9992  -19.1490   19.9494 N.ar    1  UNL1       -0.1492
      8 N          -3.2554  -20.6130   20.1524 N.ar    1  UNL1       -0.0450
      9 N          -4.7338  -20.8065   20.3162 N.ar    1  UNL1       -0.1077
     10 C          -5.3913  -19.4622   20.2144 C.ar    1  UNL1        0.2058
     11 N          -4.3193  -18.4378   19.9877 N.ar    1  UNL1       -0.1296
     12 C          -1.6583  -18.5087   19.7441 C.3     1  UNL1        0.1724
     13 C          -1.3262  -17.2234   20.4424 C.3     1  UNL1        0.1178
     14 C          -3.8960  -16.1049   23.2521 C.3     1  UNL1        0.0946
     15 C          -2.8216  -16.8694   22.5372 C.2     1  UNL1        0.2230
     16 O          -2.1682  -18.0444   23.2022 O.2     1  UNL1       -0.2751
     17 N          -2.4006  -16.4589   21.1573 N.am    1  UNL1       -0.3023
     18 H          -2.8295  -15.6876   20.7208 H       1  UNL1        0.1495
     19 O         -11.2764  -18.3735   20.6395 O.3     1  UNL1       -0.4535
     20 C         -11.9517  -18.4129   21.9783 C.ar    1  UNL1        0.1454
     21 C         -13.2475  -17.6866   22.1864 C.ar    1  UNL1        0.0384
     22 C         -13.9228  -17.7260   23.5253 C.ar    1  UNL1        0.0145
     23 C         -13.3022  -18.4917   24.6560 C.ar    1  UNL1        0.0579
     24 CL        -13.9774  -18.5311   25.9948 Cl      1  UNL1       -0.0822
     25 C         -12.0063  -19.2180   24.4479 C.ar    1  UNL1        0.0145
     26 C         -11.3311  -19.1786   23.1091 C.ar    1  UNL1        0.0384
@<TRIPOS>BOND
     1    14    15    1
     2    15    16    2
     3    15    17   am
     4    17    13    1
     5    13    12    1
     6    12     7    1
     7     7     8   ar
     8     8     9   ar
     9     9    10   ar
    10    10     1    1
    11     1     2   ar
    12     2     3   ar
    13     3     4   ar
    14     4    19    1
    15    19    20    1
    16    20    21   ar
    17    21    22   ar
    18    22    23   ar
    19    23    24    1
    20    23    25   ar
    21    25    26   ar
    22     4     5   ar
    23     5     6   ar
    24    10    11   ar
    25    11     7   ar
    26     6     1   ar
    27    26    20   ar
    28    17    18    1
@<TRIPOS>MOLECULE
*****
 26 28 0 0 0
SMALL
GASTEIGER

@<TRIPOS>ATOM
      1 C          -6.9226  -19.1488   20.9039 C.ar    1  UNL1        0.0395
      2 C          -7.8891  -19.7622   19.9345 C.ar    1  UNL1        0.0063
      3 C          -9.3405  -19.3869   19.9838 C.ar    1  UNL1        0.0376
      4 C          -9.8254  -18.3982   21.0023 C.ar    1  UNL1        0.1453
      5 C          -8.8589  -17.7849   21.9716 C.ar    1  UNL1        0.0376
      6 C          -7.4075  -18.1602   21.9224 C.ar    1  UNL1        0.0063
      7 N          -3.0594  -19.4573   21.1189 N.ar    1  UNL1       -0.1492
      8 N          -3.4156  -20.7461   20.4391 N.ar    1  UNL1       -0.0450
      9 N          -4.9061  -20.7874   20.2758 N.ar    1  UNL1       -0.1077
     10 C          -5.4711  -19.5241   20.8547 C.ar    1  UNL1        0.2058
     11 N          -4.3297  -18.7021   21.3758 N.ar    1  UNL1       -0.1296
     12 C          -1.6757  -19.0034   21.4787 C.3     1  UNL1        0.1724
     13 C          -1.1871  -17.6582   21.0296 C.3     1  UNL1        0.1178
     14 C          -3.1052  -16.3790   17.7993 C.3     1  UNL1        0.0946
     15 C          -2.2543  -17.2233   18.7011 C.2     1  UNL1        0.2230
     16 O          -1.6197  -18.4769   18.1761 O.2     1  UNL1       -0.2751
     17 N          -2.0380  -16.8139   20.1278 N.am    1  UNL1       -0.3023
     18 H          -2.4546  -15.9911   20.4724 H       1  UNL1        0.1495
     19 O         -11.2769  -18.0229   21.0515 O.3     1  UNL1       -0.4535
     20 C         -12.0451  -18.1642   22.3320 C.ar    1  UNL1        0.1454
     21 C         -11.3925  -18.7797   23.5342 C.ar    1  UNL1        0.0384
     22 C         -12.1608  -18.9209   24.8148 C.ar    1  UNL1        0.0145
     23 C         -13.5817  -18.4467   24.8932 C.ar    1  UNL1        0.0579
     24 CL        -14.3499  -18.5879   26.1737 Cl      1  UNL1       -0.0822
     25 C         -14.2343  -17.8312   23.6910 C.ar    1  UNL1        0.0145
     26 C         -13.4661  -17.6900   22.4104 C.ar    1  UNL1        0.0384
@<TRIPOS>BOND
     1    14    15    1
     2    15    16    2
     3    15    17   am
     4    17    13    1
     5    13    12    1
     6    12     7    1
     7     7     8   ar
     8     8     9   ar
     9     9    10   ar
    10    10     1    1
    11     1     2   ar
    12     2     3   ar
    13     3     4   ar
    14     4    19    1
    15    19    20    1
    16    20    21   ar
    17    21    22   ar
    18    22    23   ar
    19    23    24    1
    20    23    25   ar
    21    25    26   ar
    22     4     5   ar
    23     5     6   ar
    24    10    11   ar
    25    11     7   ar
    26     6     1   ar
    27    26    20   ar
    28    17    18    1
@<TRIPOS>MOLECULE
*****
 26 28 0 0 0
SMALL
GASTEIGER

@<TRIPOS>ATOM
      1 C         -14.1105   -7.6093   18.5262 C.ar    1  UNL1        0.0395
      2 C         -14.3781   -6.4754   19.4709 C.ar    1  UNL1        0.0063
      3 C         -13.3466   -5.4045   19.6686 C.ar    1  UNL1        0.0376
      4 C         -12.0474   -5.4676   18.9216 C.ar    1  UNL1        0.1453
      5 C         -11.7797   -6.6015   17.9768 C.ar    1  UNL1        0.0376
      6 C         -12.8113   -7.6724   17.7792 C.ar    1  UNL1        0.0063
      7 N         -17.2385   -9.8056   17.8498 N.ar    1  UNL1       -0.1492
      8 N         -16.2206  -10.8506   18.1988 N.ar    1  UNL1       -0.0450
      9 N         -14.9250  -10.1551   18.4946 N.ar    1  UNL1       -0.1077
     10 C         -15.1422   -8.6802   18.3285 C.ar    1  UNL1        0.2058
     11 N         -16.5720   -8.4642   17.9300 N.ar    1  UNL1       -0.1296
     12 C         -18.6714  -10.0577   17.4847 C.3     1  UNL1        0.1724
     13 C         -19.7703   -9.3784   18.2469 C.3     1  UNL1        0.1178
     14 C         -19.4395   -5.6827   19.6546 C.3     1  UNL1        0.0946
     15 C         -19.3936   -7.1800   19.5793 C.2     1  UNL1        0.2230
     16 O         -18.9253   -7.9764   20.7609 O.2     1  UNL1       -0.2751
     17 N         -19.8161   -7.8810   18.3222 N.am    1  UNL1       -0.3023
     18 H         -20.1235   -7.3583   17.5467 H       1  UNL1        0.1495
     19 O         -11.0157   -4.3967   19.1193 O.3     1  UNL1       -0.4535
     20 C         -11.2133   -3.0425   18.5053 C.ar    1  UNL1        0.1454
     21 C         -12.1734   -2.0709   19.1251 C.ar    1  UNL1        0.0384
     22 C         -12.3709   -0.7166   18.5111 C.ar    1  UNL1        0.0145
     23 C         -11.6084   -0.3340   17.2774 C.ar    1  UNL1        0.0579
     24 CL        -11.8060    1.0202   16.6634 Cl      1  UNL1       -0.0822
     25 C         -10.6484   -1.3056   16.6576 C.ar    1  UNL1        0.0145
     26 C         -10.4508   -2.6599   17.2715 C.ar    1  UNL1        0.0384
@<TRIPOS>BOND
     1    14    15    1
     2    15    16    2
     3    15    17   am
     4    17    13    1
     5    13    12    1
     6    12     7    1
     7     7     8   ar
     8     8     9   ar
     9     9    10   ar
    10    10     1    1
    11     1     2   ar
    12     2     3   ar
    13     3     4   ar
    14     4    19    1
    15    19    20    1
    16    20    21   ar
    17    21    22   ar
    18    22    23   ar
    19    23    24    1
    20    23    25   ar
    21    25    26   ar
    22     4     5   ar
    23     5     6   ar
    24    10    11   ar
    25    11     7   ar
    26     6     1   ar
    27    26    20   ar
    28    17    18    1
@<TRIPOS>MOLECULE
*****
 26 28 0 0 0
SMALL
GASTEIGER

@<TRIPOS>ATOM
      1 C           7.7250   -7.4565   26.2406 C.ar    1  UNL1        0.0395
      2 C           8.2407   -7.2684   24.8446 C.ar    1  UNL1        0.0063
      3 C           8.0137   -5.9694   24.1299 C.ar    1  UNL1        0.0376
      4 C           7.2710   -4.8583   24.8111 C.ar    1  UNL1        0.1453
      5 C           6.7553   -5.0464   26.2071 C.ar    1  UNL1        0.0376
      6 C           6.9823   -6.3455   26.9218 C.ar    1  UNL1        0.0063
      7 N           7.5671  -10.9031   28.0187 N.ar    1  UNL1       -0.1492
      8 N           9.0357  -10.6062   28.0918 N.ar    1  UNL1       -0.0450
      9 N           9.2735   -9.2790   27.4346 N.ar    1  UNL1       -0.1077
     10 C           7.9520   -8.7556   26.9553 C.ar    1  UNL1        0.2058
     11 N           6.8974   -9.7593   27.3163 N.ar    1  UNL1       -0.1296
     12 C           6.8876  -12.1285   28.5540 C.3     1  UNL1        0.1724
     13 C           5.6249  -12.6256   27.9149 C.3     1  UNL1        0.1178
     14 C           1.9077  -12.8687   29.2834 C.3     1  UNL1        0.0946
     15 C           3.2400  -13.2673   28.7214 C.2     1  UNL1        0.2230
     16 O           3.5198  -14.7063   28.4037 O.2     1  UNL1       -0.2751
     17 N           4.2925  -12.2269   28.4769 N.am    1  UNL1       -0.3023
     18 H           4.1088  -11.2824   28.6854 H       1  UNL1        0.1495
     19 O           7.0440   -3.5592   24.0964 O.3     1  UNL1       -0.4535
     20 C           6.4646   -3.5557   22.7128 C.ar    1  UNL1        0.1454
     21 C           4.9855   -3.7129   22.5188 C.ar    1  UNL1        0.0384
     22 C           4.4061   -3.7094   21.1352 C.ar    1  UNL1        0.0145
     23 C           5.3057   -3.5486   19.9457 C.ar    1  UNL1        0.0579
     24 CL          4.7262   -3.5451   18.5622 Cl      1  UNL1       -0.0822
     25 C           6.7847   -3.3914   20.1398 C.ar    1  UNL1        0.0145
     26 C           7.3642   -3.3949   21.5233 C.ar    1  UNL1        0.0384
@<TRIPOS>BOND
     1    14    15    1
     2    15    16    2
     3    15    17   am
     4    17    13    1
     5    13    12    1
     6    12     7    1
     7     7     8   ar
     8     8     9   ar
     9     9    10   ar
    10    10     1    1
    11     1     2   ar
    12     2     3   ar
    13     3     4   ar
    14     4    19    1
    15    19    20    1
    16    20    21   ar
    17    21    22   ar
    18    22    23   ar
    19    23    24    1
    20    23    25   ar
    21    25    26   ar
    22     4     5   ar
    23     5     6   ar
    24    10    11   ar
    25    11     7   ar
    26     6     1   ar
    27    26    20   ar
    28    17    18    1
@<TRIPOS>MOLECULE
*****
 26 28 0 0 0
SMALL
GASTEIGER

@<TRIPOS>ATOM
      1 C           1.9893    0.7732   18.9283 C.ar    1  UNL1        0.0395
      2 C           0.9683    0.3713   19.9510 C.ar    1  UNL1        0.0063
      3 C          -0.0264    1.3758   20.4526 C.ar    1  UNL1        0.0376
      4 C           0.0000    2.7821   19.9315 C.ar    1  UNL1        0.1453
      5 C           1.0211    3.1840   18.9089 C.ar    1  UNL1        0.0376
      6 C           2.0157    2.1795   18.4073 C.ar    1  UNL1        0.0063
      7 N           4.3871   -2.2045   18.2576 N.ar    1  UNL1       -0.1492
      8 N           4.6423   -1.3496   17.0517 N.ar    1  UNL1       -0.0450
      9 N           3.7751   -0.1301   17.1562 N.ar    1  UNL1       -0.1077
     10 C           2.9840   -0.2313   18.4267 C.ar    1  UNL1        0.2058
     11 N           3.3623   -1.5134   19.1073 N.ar    1  UNL1       -0.1296
     12 C           5.0419   -3.5196   18.5605 C.3     1  UNL1        0.1724
     13 C           4.5512   -4.3557   19.7051 C.3     1  UNL1        0.1178
     14 C           4.9387   -3.0834   23.4441 C.3     1  UNL1        0.0946
     15 C           5.2531   -3.7267   22.1262 C.2     1  UNL1        0.2230
     16 O           6.5840   -4.3844   21.9111 O.2     1  UNL1       -0.2751
     17 N           4.2367   -3.7124   21.0232 N.am    1  UNL1       -0.3023
     18 H           3.3632   -3.2807   21.1643 H       1  UNL1        0.1495
     19 O          -0.9947    3.7866   20.4332 O.3     1  UNL1       -0.4535
     20 C          -2.4335    3.6878   20.0209 C.ar    1  UNL1        0.1454
     21 C          -2.8303    3.9868   18.6056 C.ar    1  UNL1        0.0384
     22 C          -4.2692    3.8879   18.1933 C.ar    1  UNL1        0.0145
     23 C          -5.3112    3.4900   19.1963 C.ar    1  UNL1        0.0579
     24 CL         -6.7499    3.3911   18.7840 Cl      1  UNL1       -0.0822
     25 C          -4.9143    3.1910   20.6116 C.ar    1  UNL1        0.0145
     26 C          -3.4755    3.2898   21.0239 C.ar    1  UNL1        0.0384
@<TRIPOS>BOND
     1    14    15    1
     2    15    16    2
     3    15    17   am
     4    17    13    1
     5    13    12    1
     6    12     7    1
     7     7     8   ar
     8     8     9   ar
     9     9    10   ar
    10    10     1    1
    11     1     2   ar
    12     2     3   ar
    13     3     4   ar
    14     4    19    1
    15    19    20    1
    16    20    21   ar
    17    21    22   ar
    18    22    23   ar
    19    23    24    1
    20    23    25   ar
    21    25    26   ar
    22     4     5   ar
    23     5     6   ar
    24    10    11   ar
    25    11     7   ar
    26     6     1   ar
    27    26    20   ar
    28    17    18    1
@<TRIPOS>MOLECULE
*****
 26 28 0 0 0
SMALL
GASTEIGER

@<TRIPOS>ATOM
      1 C           0.0708    1.7349   20.3031 C.ar    1  UNL1        0.0395
      2 C           0.8630    2.4333   19.2380 C.ar    1  UNL1        0.0063
      3 C           1.9077    1.6826   18.4667 C.ar    1  UNL1        0.0376
      4 C           2.1603    0.2335   18.7605 C.ar    1  UNL1        0.1453
      5 C           1.3681   -0.4649   19.8256 C.ar    1  UNL1        0.0376
      6 C           0.3233    0.2858   20.5970 C.ar    1  UNL1        0.0063
      7 N          -3.0816    3.5013   21.7201 N.ar    1  UNL1       -0.1492
      8 N          -2.0818    3.7800   22.8031 N.ar    1  UNL1       -0.0450
      9 N          -0.7793    3.1522   22.4041 N.ar    1  UNL1       -0.1077
     10 C          -0.9740    2.4855   21.0745 C.ar    1  UNL1        0.2058
     11 N          -2.3970    2.7013   20.6518 N.ar    1  UNL1       -0.1296
     12 C          -4.5145    3.9448   21.7076 C.3     1  UNL1        0.1724
     13 C          -5.4645    3.4418   22.7538 C.3     1  UNL1        0.1178
     14 C          -4.2980    3.9751   26.5094 C.3     1  UNL1        0.0946
     15 C          -4.7940    4.2672   25.1243 C.2     1  UNL1        0.2230
     16 O          -5.1154    5.6767   24.7244 O.2     1  UNL1       -0.2751
     17 N          -4.9685    3.1497   24.1390 N.am    1  UNL1       -0.3023
     18 H          -4.7576    2.2246   24.4014 H       1  UNL1        0.1495
     19 O           3.2051   -0.5171   17.9891 O.3     1  UNL1       -0.4535
     20 C           4.1731   -1.4083   18.7092 C.ar    1  UNL1        0.1454
     21 C           3.9844   -2.8962   18.6837 C.ar    1  UNL1        0.0384
     22 C           4.9526   -3.7875   19.4038 C.ar    1  UNL1        0.0145
     23 C           6.1093   -3.1908   20.1493 C.ar    1  UNL1        0.0579
     24 CL          7.0774   -4.0821   20.8693 Cl      1  UNL1       -0.0822
     25 C           6.2980   -1.7030   20.1748 C.ar    1  UNL1        0.0145
     26 C           5.3300   -0.8117   19.4547 C.ar    1  UNL1        0.0384
@<TRIPOS>BOND
     1    14    15    1
     2    15    16    2
     3    15    17   am
     4    17    13    1
     5    13    12    1
     6    12     7    1
     7     7     8   ar
     8     8     9   ar
     9     9    10   ar
    10    10     1    1
    11     1     2   ar
    12     2     3   ar
    13     3     4   ar
    14     4    19    1
    15    19    20    1
    16    20    21   ar
    17    21    22   ar
    18    22    23   ar
    19    23    24    1
    20    23    25   ar
    21    25    26   ar
    22     4     5   ar
    23     5     6   ar
    24    10    11   ar
    25    11     7   ar
    26     6     1   ar
    27    26    20   ar
    28    17    18    1
@<TRIPOS>MOLECULE
*****
 26 28 0 0 0
SMALL
GASTEIGER

@<TRIPOS>ATOM
      1 C           5.6898   -3.2769   21.5537 C.ar    1  UNL1        0.0395
      2 C           5.9710   -1.8155   21.3659 C.ar    1  UNL1        0.0063
      3 C           5.1881   -1.0243   20.3604 C.ar    1  UNL1        0.0376
      4 C           4.1241   -1.6945   19.5427 C.ar    1  UNL1        0.1453
      5 C           3.8430   -3.1559   19.7304 C.ar    1  UNL1        0.0376
      6 C           4.6258   -3.9471   20.7359 C.ar    1  UNL1        0.0063
      7 N           7.3409   -4.9118   24.6628 N.ar    1  UNL1       -0.1492
      8 N           8.0140   -5.6597   23.5503 N.ar    1  UNL1       -0.0450
      9 N           7.4774   -5.1383   22.2502 N.ar    1  UNL1       -0.1077
     10 C           6.4727   -4.0681   22.5592 C.ar    1  UNL1        0.2058
     11 N           6.3884   -3.9281   24.0503 N.ar    1  UNL1       -0.1296
     12 C           7.5787   -5.1123   26.1302 C.3     1  UNL1        0.1724
     13 C           6.6751   -6.0117   26.9204 C.3     1  UNL1        0.1178
     14 C           6.9417   -5.6739   30.8656 C.3     1  UNL1        0.0946
     15 C           7.2849   -6.0153   29.4459 C.2     1  UNL1        0.2230
     16 O           8.5812   -6.7015   29.1319 O.2     1  UNL1       -0.2751
     17 N           6.3318   -5.6704   28.3402 N.am    1  UNL1       -0.3023
     18 H           5.4810   -5.2199   28.5463 H       1  UNL1        0.1495
     19 O           3.3412   -0.9032   18.5371 O.3     1  UNL1       -0.4535
     20 C           2.2508    0.0201   18.9938 C.ar    1  UNL1        0.1454
     21 C           2.1661    1.4119   18.4409 C.ar    1  UNL1        0.0384
     22 C           1.0756    2.3352   18.8976 C.ar    1  UNL1        0.0145
     23 C           0.0700    1.8667   19.9071 C.ar    1  UNL1        0.0579
     24 CL         -1.0204    2.7900   20.3637 Cl      1  UNL1       -0.0822
     25 C           0.1548    0.4749   20.4600 C.ar    1  UNL1        0.0145
     26 C           1.2451   -0.4484   20.0033 C.ar    1  UNL1        0.0384
@<TRIPOS>BOND
     1    14    15    1
     2    15    16    2
     3    15    17   am
     4    17    13    1
     5    13    12    1
     6    12     7    1
     7     7     8   ar
     8     8     9   ar
     9     9    10   ar
    10    10     1    1
    11     1     2   ar
    12     2     3   ar
    13     3     4   ar
    14     4    19    1
    15    19    20    1
    16    20    21   ar
    17    21    22   ar
    18    22    23   ar
    19    23    24    1
    20    23    25   ar
    21    25    26   ar
    22     4     5   ar
    23     5     6   ar
    24    10    11   ar
    25    11     7   ar
    26     6     1   ar
    27    26    20   ar
    28    17    18    1
@<TRIPOS>MOLECULE
*****
 26 28 0 0 0
SMALL
GASTEIGER

@<TRIPOS>ATOM
      1 C           0.3180    1.6081   20.3188 C.ar    1  UNL1        0.0395
      2 C           1.1405    2.2840   19.2621 C.ar    1  UNL1        0.0063
      3 C           2.1458    1.4959   18.4759 C.ar    1  UNL1        0.0376
      4 C           2.3287    0.0318   18.7465 C.ar    1  UNL1        0.1453
      5 C           1.5062   -0.6440   19.8032 C.ar    1  UNL1        0.0376
      6 C           0.5009    0.1441   20.5894 C.ar    1  UNL1        0.0063
      7 N          -2.7455    3.4919   21.7787 N.ar    1  UNL1       -0.1492
      8 N          -1.7232    3.7262   22.8512 N.ar    1  UNL1       -0.0450
      9 N          -0.4512    3.0490   22.4348 N.ar    1  UNL1       -0.1077
     10 C          -0.6873    2.3963   21.1051 C.ar    1  UNL1        0.2058
     11 N          -2.1053    2.6700   20.6996 N.ar    1  UNL1       -0.1296
     12 C          -4.1598    3.9918   21.7845 C.3     1  UNL1        0.1724
     13 C          -4.6550    4.8543   20.6616 C.3     1  UNL1        0.1178
     14 C          -4.2083    3.6520   16.9060 C.3     1  UNL1        0.0946
     15 C          -4.7782    3.8144   18.2838 C.2     1  UNL1        0.2230
     16 O          -6.0415    3.0995   18.6620 O.2     1  UNL1       -0.2751
     17 N          -4.0850    4.6918   19.2836 N.am    1  UNL1       -0.3023
     18 H          -3.2559    5.1611   19.0354 H       1  UNL1        0.1495
     19 O           3.3341   -0.7563   17.9602 O.3     1  UNL1       -0.4535
     20 C           4.3161   -1.6399   18.6708 C.ar    1  UNL1        0.1454
     21 C           5.6082   -1.0702   19.1767 C.ar    1  UNL1        0.0384
     22 C           6.5902   -1.9539   19.8872 C.ar    1  UNL1        0.0145
     23 C           6.2801   -3.4071   20.0919 C.ar    1  UNL1        0.0579
     24 CL          7.2622   -4.2907   20.8024 Cl      1  UNL1       -0.0822
     25 C           4.9880   -3.9767   19.5860 C.ar    1  UNL1        0.0145
     26 C           4.0060   -3.0932   18.8754 C.ar    1  UNL1        0.0384
@<TRIPOS>BOND
     1    14    15    1
     2    15    16    2
     3    15    17   am
     4    17    13    1
     5    13    12    1
     6    12     7    1
     7     7     8   ar
     8     8     9   ar
     9     9    10   ar
    10    10     1    1
    11     1     2   ar
    12     2     3   ar
    13     3     4   ar
    14     4    19    1
    15    19    20    1
    16    20    21   ar
    17    21    22   ar
    18    22    23   ar
    19    23    24    1
    20    23    25   ar
    21    25    26   ar
    22     4     5   ar
    23     5     6   ar
    24    10    11   ar
    25    11     7   ar
    26     6     1   ar
    27    26    20   ar
    28    17    18    1
@<TRIPOS>MOLECULE
*****
 26 28 0 0 0
SMALL
GASTEIGER

@<TRIPOS>ATOM
      1 C           0.3996    1.7712   19.6464 C.ar    1  UNL1        0.0395
      2 C           0.3974    0.4126   20.2822 C.ar    1  UNL1        0.0063
      3 C           1.4636   -0.5819   19.9302 C.ar    1  UNL1        0.0376
      4 C           2.5321   -0.2179   18.9424 C.ar    1  UNL1        0.1453
      5 C           2.5343    1.1407   18.3065 C.ar    1  UNL1        0.0376
      6 C           1.4681    2.1352   18.6586 C.ar    1  UNL1        0.0063
      7 N          -2.5303    3.8572   21.1058 N.ar    1  UNL1       -0.1492
      8 N          -2.0847    4.7354   19.9743 N.ar    1  UNL1       -0.0450
      9 N          -0.9329    4.0608   19.2899 N.ar    1  UNL1       -0.1077
     10 C          -0.6667    2.7658   19.9984 C.ar    1  UNL1        0.2058
     11 N          -1.6539    2.6399   21.1207 N.ar    1  UNL1       -0.1296
     12 C          -3.6548    4.1457   22.0557 C.3     1  UNL1        0.1724
     13 C          -4.8002    3.1846   22.1759 C.3     1  UNL1        0.1178
     14 C          -8.1441    4.5494   23.8207 C.3     1  UNL1        0.0946
     15 C          -7.0576    4.2995   22.8173 C.2     1  UNL1        0.2230
     16 O          -7.1418    4.9146   21.4518 O.2     1  UNL1       -0.2751
     17 N          -5.8868    3.4346   23.1794 N.am    1  UNL1       -0.3023
     18 H          -5.8315    3.0309   24.0756 H       1  UNL1        0.1495
     19 O           3.5984   -1.2125   18.5903 O.3     1  UNL1       -0.4535
     20 C           4.3255   -1.9485   19.6764 C.ar    1  UNL1        0.1454
     21 C           3.8897   -3.3293   20.0682 C.ar    1  UNL1        0.0384
     22 C           4.6169   -4.0654   21.1543 C.ar    1  UNL1        0.0145
     23 C           5.7797   -3.4206   21.8486 C.ar    1  UNL1        0.0579
     24 CL          6.5068   -4.1566   22.9346 Cl      1  UNL1       -0.0822
     25 C           6.2155   -2.0398   21.4568 C.ar    1  UNL1        0.0145
     26 C           5.4884   -1.3038   20.3707 C.ar    1  UNL1        0.0384
@<TRIPOS>BOND
     1    14    15    1
     2    15    16    2
     3    15    17   am
     4    17    13    1
     5    13    12    1
     6    12     7    1
     7     7     8   ar
     8     8     9   ar
     9     9    10   ar
    10    10     1    1
    11     1     2   ar
    12     2     3   ar
    13     3     4   ar
    14     4    19    1
    15    19    20    1
    16    20    21   ar
    17    21    22   ar
    18    22    23   ar
    19    23    24    1
    20    23    25   ar
    21    25    26   ar
    22     4     5   ar
    23     5     6   ar
    24    10    11   ar
    25    11     7   ar
    26     6     1   ar
    27    26    20   ar
    28    17    18    1
