@<TRIPOS>MOLECULE
*****
 31 34 0 0 0
SMALL
GASTEIGER

@<TRIPOS>ATOM
      1 C           3.2291   -4.2643   19.0635 C.3     1  UNL1        0.1152
      2 N           3.8326   -3.0333   19.6720 N.am    1  UNL1       -0.2740
      3 C           4.4422   -3.0951   21.0412 C.2     1  UNL1        0.2303
      4 O           4.4483   -4.3879   21.8018 O.2     1  UNL1       -0.2745
      5 C           5.0457   -1.8641   21.6498 C.3     1  UNL1        0.1116
      6 C           4.3954   -1.2185   22.8374 C.ar    1  UNL1       -0.0134
      7 C           3.6024    0.0430   22.6647 C.ar    1  UNL1       -0.0041
      8 C           2.9521    0.6885   23.8523 C.ar    1  UNL1       -0.0034
      9 C           3.0949    0.0726   25.2126 C.ar    1  UNL1       -0.0071
     10 C           3.8879   -1.1888   25.3852 C.ar    1  UNL1       -0.0074
     11 C           4.5382   -1.8344   24.1977 C.ar    1  UNL1       -0.0069
     12 C           3.8543   -1.5623   26.8376 C.3     1  UNL1        0.1218
     13 N           3.0404   -0.5317   27.5626 N.3     1  UNL1       -0.1505
     14 C           2.5711    0.4788   26.5583 C.3     1  UNL1        0.1218
     15 S           2.7474   -0.5146   29.0336 S.O2    1  UNL1        0.0463
     16 C           2.4545   -0.4975   30.5046 C.3     1  UNL1        0.1960
     17 O           1.2790   -0.4270   28.7401 O.2     1  UNL1       -0.1572
     18 O           4.2158   -0.6021   29.3271 O.2     1  UNL1       -0.1572
     19 C           3.8265   -1.7404   18.9115 C.3     1  UNL1        0.1138
     20 C           2.7363   -0.7373   19.1462 C.ar    1  UNL1       -0.0029
     21 C           2.7577    0.5767   18.4231 C.ar    1  UNL1       -0.0026
     22 C           1.6675    1.5799   18.6578 C.ar    1  UNL1       -0.0003
     23 C           0.5559    1.2691   19.6158 C.ar    1  UNL1       -0.0000
     24 C           0.5345   -0.0450   20.3390 C.ar    1  UNL1       -0.0003
     25 C           1.6247   -1.0481   20.1042 C.ar    1  UNL1       -0.0026
     26 C           4.9107   -1.4507   17.9161 C.3     1  UNL1        0.0967
     27 N           6.3132   -1.2018   18.3860 N.3     1  UNL1       -0.2710
     28 C           6.9263    0.1395   18.6601 C.3     1  UNL1        0.0722
     29 C           8.3410   -0.0802   19.1078 C.3     1  UNL1        0.0188
     30 C           8.6022   -1.5573   19.1105 C.3     1  UNL1        0.0188
     31 C           7.3490   -2.2504   18.6644 C.3     1  UNL1        0.0722
@<TRIPOS>BOND
     1     1     2    1
     2     2     3   am
     3     3     4    2
     4     3     5    1
     5     5     6    1
     6     6     7   ar
     7     7     8   ar
     8     8     9   ar
     9     9    10   ar
    10    10    11   ar
    11    10    12    1
    12    12    13    1
    13    13    15    1
    14    15    16    1
    15    15    17    2
    16    15    18    2
    17    13    14    1
    18     2    19    1
    19    19    26    1
    20    26    27    1
    21    27    28    1
    22    28    29    1
    23    29    30    1
    24    30    31    1
    25    19    20    1
    26    20    21   ar
    27    21    22   ar
    28    22    23   ar
    29    23    24   ar
    30    24    25   ar
    31    11     6   ar
    32    31    27    1
    33    25    20   ar
    34    14     9    1
@<TRIPOS>MOLECULE
*****
 31 34 0 0 0
SMALL
GASTEIGER

@<TRIPOS>ATOM
      1 C           7.9275   -2.5787   20.1145 C.3     1  UNL1        0.1152
      2 N           6.4307   -2.5369   20.0265 N.am    1  UNL1       -0.2740
      3 C           5.7612   -2.4130   18.6898 C.2     1  UNL1        0.2303
      4 O           6.5886   -2.3311   17.4413 O.2     1  UNL1       -0.2745
      5 C           4.2644   -2.3712   18.6017 C.3     1  UNL1        0.1116
      6 C           3.5414   -1.0638   18.7360 C.ar    1  UNL1       -0.0134
      7 C           4.1331    0.1840   18.1506 C.ar    1  UNL1       -0.0041
      8 C           3.4101    1.4914   18.2849 C.ar    1  UNL1       -0.0034
      9 C           2.0954    1.5509   19.0047 C.ar    1  UNL1       -0.0071
     10 C           1.5038    0.3031   19.5902 C.ar    1  UNL1       -0.0074
     11 C           2.2268   -1.0042   19.4559 C.ar    1  UNL1       -0.0069
     12 C           0.2021    0.6681   20.2401 C.3     1  UNL1        0.1218
     13 N          -0.0107    2.1415   20.0563 N.3     1  UNL1       -0.1505
     14 C           1.1594    2.6872   19.2928 C.3     1  UNL1        0.1218
     15 S          -1.1872    2.9307   20.5494 S.O2    1  UNL1        0.0463
     16 C          -2.3636    3.7198   21.0426 C.3     1  UNL1        0.1960
     17 O          -1.4273    3.4414   19.1596 O.2     1  UNL1       -0.1572
     18 O          -0.9471    2.4200   21.9392 O.2     1  UNL1       -0.1572
     19 C           5.6033   -2.6189   21.2749 C.3     1  UNL1        0.1138
     20 C           4.9003   -1.3982   21.7903 C.ar    1  UNL1       -0.0029
     21 C           3.6371   -1.5403   22.5865 C.ar    1  UNL1       -0.0026
     22 C           2.9340   -0.3196   23.1020 C.ar    1  UNL1       -0.0003
     23 C           3.4942    1.0432   22.8211 C.ar    1  UNL1       -0.0000
     24 C           4.7575    1.1853   22.0249 C.ar    1  UNL1       -0.0003
     25 C           5.4605   -0.0354   21.5095 C.ar    1  UNL1       -0.0026
     26 C           5.4790   -3.9217   22.0081 C.3     1  UNL1        0.0967
     27 N           6.4335   -4.2522   23.1170 N.3     1  UNL1       -0.2710
     28 C           7.7079   -5.0314   22.9804 C.3     1  UNL1        0.0722
     29 C           8.3432   -5.1224   24.3362 C.3     1  UNL1        0.0188
     30 C           7.4613   -4.3995   25.3108 C.3     1  UNL1        0.0188
     31 C           6.2811   -3.8617   24.5572 C.3     1  UNL1        0.0722
@<TRIPOS>BOND
     1     1     2    1
     2     2     3   am
     3     3     4    2
     4     3     5    1
     5     5     6    1
     6     6     7   ar
     7     7     8   ar
     8     8     9   ar
     9     9    10   ar
    10    10    11   ar
    11    10    12    1
    12    12    13    1
    13    13    15    1
    14    15    16    1
    15    15    17    2
    16    15    18    2
    17    13    14    1
    18     2    19    1
    19    19    26    1
    20    26    27    1
    21    27    28    1
    22    28    29    1
    23    29    30    1
    24    30    31    1
    25    19    20    1
    26    20    21   ar
    27    21    22   ar
    28    22    23   ar
    29    23    24   ar
    30    24    25   ar
    31    11     6   ar
    32    31    27    1
    33    25    20   ar
    34    14     9    1
@<TRIPOS>MOLECULE
*****
 31 34 0 0 0
SMALL
GASTEIGER

@<TRIPOS>ATOM
      1 C           3.2438   -4.2904   18.9841 C.3     1  UNL1        0.1152
      2 N           3.8218   -3.0628   19.6235 N.am    1  UNL1       -0.2740
      3 C           4.4019   -3.1390   21.0048 C.2     1  UNL1        0.2303
      4 O           4.4039   -4.4428   21.7465 O.2     1  UNL1       -0.2745
      5 C           4.9798   -1.9114   21.6442 C.3     1  UNL1        0.1116
      6 C           4.4985   -1.4721   22.9953 C.ar    1  UNL1       -0.0134
      7 C           5.1350   -2.0269   24.2351 C.ar    1  UNL1       -0.0041
      8 C           4.6536   -1.5876   25.5861 C.ar    1  UNL1       -0.0034
      9 C           3.5358   -0.5936   25.6974 C.ar    1  UNL1       -0.0071
     10 C           2.8993   -0.0388   24.4576 C.ar    1  UNL1       -0.0074
     11 C           3.3806   -0.4781   23.1066 C.ar    1  UNL1       -0.0069
     12 C           1.8245    0.9196   24.8774 C.3     1  UNL1        0.1218
     13 N           1.7968    0.9572   26.3767 N.3     1  UNL1       -0.1505
     14 C           2.8544    0.0220   26.8835 C.3     1  UNL1        0.1218
     15 S           0.8734    1.7847   27.2210 S.O2    1  UNL1        0.0463
     16 C          -0.0499    2.6122   28.0652 C.3     1  UNL1        0.1960
     17 O           1.9697    1.9831   28.2255 O.2     1  UNL1       -0.1572
     18 O          -0.2227    1.5863   26.2165 O.2     1  UNL1       -0.1572
     19 C           3.8197   -1.7591   18.8818 C.3     1  UNL1        0.1138
     20 C           2.7240   -0.7626   19.1196 C.ar    1  UNL1       -0.0029
     21 C           1.6368   -1.0651   20.1077 C.ar    1  UNL1       -0.0026
     22 C           0.5411   -0.0686   20.3456 C.ar    1  UNL1       -0.0003
     23 C           0.5327    1.2303   19.5954 C.ar    1  UNL1       -0.0000
     24 C           1.6200    1.5327   18.6072 C.ar    1  UNL1       -0.0003
     25 C           2.7156    0.5362   18.3694 C.ar    1  UNL1       -0.0026
     26 C           4.9133   -1.4517   17.9022 C.3     1  UNL1        0.0967
     27 N           6.3272   -1.3005   18.3797 N.3     1  UNL1       -0.2710
     28 C           7.3108   -2.4134   18.5895 C.3     1  UNL1        0.0722
     29 C           8.5973   -1.8106   19.0708 C.3     1  UNL1        0.0188
     30 C           8.4088   -0.3250   19.1584 C.3     1  UNL1        0.0188
     31 C           7.0059   -0.0098   18.7313 C.3     1  UNL1        0.0722
@<TRIPOS>BOND
     1     1     2    1
     2     2     3   am
     3     3     4    2
     4     3     5    1
     5     5     6    1
     6     6     7   ar
     7     7     8   ar
     8     8     9   ar
     9     9    10   ar
    10    10    11   ar
    11    10    12    1
    12    12    13    1
    13    13    15    1
    14    15    16    1
    15    15    17    2
    16    15    18    2
    17    13    14    1
    18     2    19    1
    19    19    26    1
    20    26    27    1
    21    27    28    1
    22    28    29    1
    23    29    30    1
    24    30    31    1
    25    19    20    1
    26    20    21   ar
    27    21    22   ar
    28    22    23   ar
    29    23    24   ar
    30    24    25   ar
    31    11     6   ar
    32    31    27    1
    33    25    20   ar
    34    14     9    1
@<TRIPOS>MOLECULE
*****
 31 34 0 0 0
SMALL
GASTEIGER

@<TRIPOS>ATOM
      1 C           3.3290   -4.1650   19.2808 C.3     1  UNL1        0.1152
      2 N           3.9881   -2.9185   19.7922 N.am    1  UNL1       -0.2740
      3 C           4.6589   -2.9211   21.1339 C.2     1  UNL1        0.2303
      4 O           4.6706   -4.1704   21.9641 O.2     1  UNL1       -0.2745
      5 C           5.3180   -1.6746   21.6453 C.3     1  UNL1        0.1116
      6 C           4.4826   -0.4958   22.0487 C.ar    1  UNL1       -0.0134
      7 C           4.8720    0.8847   21.6101 C.ar    1  UNL1       -0.0041
      8 C           4.0366    2.0634   22.0134 C.ar    1  UNL1       -0.0034
      9 C           2.8117    1.8615   22.8555 C.ar    1  UNL1       -0.0071
     10 C           2.4223    0.4810   23.2942 C.ar    1  UNL1       -0.0074
     11 C           3.2578   -0.6977   22.8908 C.ar    1  UNL1       -0.0069
     12 C           1.1708    0.5908   24.1136 C.3     1  UNL1        0.1218
     13 N           0.7866    2.0392   24.1813 N.3     1  UNL1       -0.1505
     14 C           1.8008    2.8246   23.4038 C.3     1  UNL1        0.1218
     15 S          -0.4029    2.6031   24.9004 S.O2    1  UNL1        0.0463
     16 C          -1.5924    3.1670   25.6195 C.3     1  UNL1        0.1960
     17 O          -0.5627    3.6369   23.8253 O.2     1  UNL1       -0.1572
     18 O          -0.2431    1.5694   25.9754 O.2     1  UNL1       -0.1572
     19 C           3.9765   -1.6692   18.9620 C.3     1  UNL1        0.1138
     20 C           2.8752   -0.6653   19.1329 C.ar    1  UNL1       -0.0029
     21 C           1.6659   -1.0107   19.9504 C.ar    1  UNL1       -0.0026
     22 C           0.5645   -0.0068   20.1214 C.ar    1  UNL1       -0.0003
     23 C           0.6725    1.3425   19.4749 C.ar    1  UNL1       -0.0000
     24 C           1.8819    1.6878   18.6574 C.ar    1  UNL1       -0.0003
     25 C           2.9832    0.6839   18.4865 C.ar    1  UNL1       -0.0026
     26 C           5.0663   -1.4239   17.9608 C.3     1  UNL1        0.0967
     27 N           6.4745   -1.1980   18.4253 N.3     1  UNL1       -0.2710
     28 C           7.1201    0.1341   18.6676 C.3     1  UNL1        0.0722
     29 C           8.5290   -0.1092   19.1212 C.3     1  UNL1        0.0188
     30 C           8.7543   -1.5917   19.1592 C.3     1  UNL1        0.0188
     31 C           7.4845   -2.2646   18.7291 C.3     1  UNL1        0.0722
@<TRIPOS>BOND
     1     1     2    1
     2     2     3   am
     3     3     4    2
     4     3     5    1
     5     5     6    1
     6     6     7   ar
     7     7     8   ar
     8     8     9   ar
     9     9    10   ar
    10    10    11   ar
    11    10    12    1
    12    12    13    1
    13    13    15    1
    14    15    16    1
    15    15    17    2
    16    15    18    2
    17    13    14    1
    18     2    19    1
    19    19    26    1
    20    26    27    1
    21    27    28    1
    22    28    29    1
    23    29    30    1
    24    30    31    1
    25    19    20    1
    26    20    21   ar
    27    21    22   ar
    28    22    23   ar
    29    23    24   ar
    30    24    25   ar
    31    11     6   ar
    32    31    27    1
    33    25    20   ar
    34    14     9    1
@<TRIPOS>MOLECULE
*****
 31 34 0 0 0
SMALL
GASTEIGER

@<TRIPOS>ATOM
      1 C           6.2461    0.6026   17.0428 C.3     1  UNL1        0.1152
      2 N           5.2397    0.1514   18.0593 N.am    1  UNL1       -0.2740
      3 C           4.1010   -0.7334   17.6459 C.2     1  UNL1        0.2303
      4 O           3.9689   -1.1668   16.2160 O.2     1  UNL1       -0.2745
      5 C           3.0946   -1.1846   18.6625 C.3     1  UNL1        0.1116
      6 C           2.0745   -0.2185   19.1881 C.ar    1  UNL1       -0.0134
      7 C           1.5481   -0.3696   20.5845 C.ar    1  UNL1       -0.0041
      8 C           0.5281    0.5964   21.1101 C.ar    1  UNL1       -0.0034
      9 C           0.0345    1.7136   20.2392 C.ar    1  UNL1       -0.0071
     10 C           0.5609    1.8647   18.8428 C.ar    1  UNL1       -0.0074
     11 C           1.5809    0.8986   18.3173 C.ar    1  UNL1       -0.0069
     12 C          -0.1075    3.0552   18.2218 C.3     1  UNL1        0.1218
     13 N          -1.0471    3.6400   19.2343 N.3     1  UNL1       -0.1505
     14 C          -0.9594    2.8108   20.4812 C.3     1  UNL1        0.1218
     15 S          -1.9210    4.8428   19.0350 S.O2    1  UNL1        0.0463
     16 C          -2.7948    6.0455   18.8356 C.3     1  UNL1        0.1960
     17 O          -3.1362    4.0034   19.2975 O.2     1  UNL1       -0.1572
     18 O          -0.7059    5.6821   18.7725 O.2     1  UNL1       -0.1572
     19 C           5.3718    0.5848   19.4892 C.3     1  UNL1        0.1138
     20 C           4.6689    1.8211   19.9662 C.ar    1  UNL1       -0.0029
     21 C           4.3956    2.9443   19.0104 C.ar    1  UNL1       -0.0026
     22 C           3.6927    4.1807   19.4873 C.ar    1  UNL1       -0.0003
     23 C           3.2631    4.2937   20.9201 C.ar    1  UNL1       -0.0000
     24 C           3.5365    3.1704   21.8759 C.ar    1  UNL1       -0.0003
     25 C           4.2394    1.9341   21.3989 C.ar    1  UNL1       -0.0026
     26 C           6.2069   -0.2181   20.4422 C.3     1  UNL1        0.0967
     27 N           5.6355   -1.4443   21.0902 N.3     1  UNL1       -0.2710
     28 C           4.8101   -1.4766   22.3423 C.3     1  UNL1        0.0722
     29 C           4.4537   -2.9058   22.6259 C.3     1  UNL1        0.0188
     30 C           5.0589   -3.7568   21.5491 C.3     1  UNL1        0.0188
     31 C           5.7893   -2.8536   20.6001 C.3     1  UNL1        0.0722
@<TRIPOS>BOND
     1     1     2    1
     2     2     3   am
     3     3     4    2
     4     3     5    1
     5     5     6    1
     6     6     7   ar
     7     7     8   ar
     8     8     9   ar
     9     9    10   ar
    10    10    11   ar
    11    10    12    1
    12    12    13    1
    13    13    15    1
    14    15    16    1
    15    15    17    2
    16    15    18    2
    17    13    14    1
    18     2    19    1
    19    19    26    1
    20    26    27    1
    21    27    28    1
    22    28    29    1
    23    29    30    1
    24    30    31    1
    25    19    20    1
    26    20    21   ar
    27    21    22   ar
    28    22    23   ar
    29    23    24   ar
    30    24    25   ar
    31    11     6   ar
    32    31    27    1
    33    25    20   ar
    34    14     9    1
@<TRIPOS>MOLECULE
*****
 31 34 0 0 0
SMALL
GASTEIGER

@<TRIPOS>ATOM
      1 C           8.3566   -0.0351   19.4301 C.3     1  UNL1        0.1152
      2 N           6.8793   -0.2439   19.2763 N.am    1  UNL1       -0.2740
      3 C           6.2454   -0.1479   17.9201 C.2     1  UNL1        0.2303
      4 O           7.0890    0.1570   16.7179 O.2     1  UNL1       -0.2745
      5 C           4.7680   -0.3568   17.7663 C.3     1  UNL1        0.1116
      6 C           3.8118    0.7297   18.1604 C.ar    1  UNL1       -0.0134
      7 C           4.2045    2.1686   18.0006 C.ar    1  UNL1       -0.0041
      8 C           3.2483    3.2550   18.3946 C.ar    1  UNL1       -0.0034
      9 C           1.8995    2.9027   18.9484 C.ar    1  UNL1       -0.0071
     10 C           1.5069    1.4638   19.1082 C.ar    1  UNL1       -0.0074
     11 C           2.4631    0.3774   18.7141 C.ar    1  UNL1       -0.0069
     12 C           0.1200    1.4223   19.6780 C.3     1  UNL1        0.1218
     13 N          -0.3446    2.8356   19.8704 N.3     1  UNL1       -0.1505
     14 C           0.7552    3.7505   19.4195 C.3     1  UNL1        0.1218
     15 S          -1.6754    3.2594   20.4176 S.O2    1  UNL1        0.0463
     16 C          -3.0061    3.6832   20.9648 C.3     1  UNL1        0.1960
     17 O          -1.3337    2.6303   21.7358 O.2     1  UNL1       -0.1572
     18 O          -2.0170    3.8885   19.0995 O.2     1  UNL1       -0.1572
     19 C           6.0357   -0.5488   20.4786 C.3     1  UNL1        0.1138
     20 C           5.2978    0.5549   21.1765 C.ar    1  UNL1       -0.0029
     21 C           3.9965    0.2686   21.8653 C.ar    1  UNL1       -0.0026
     22 C           3.2585    1.3724   22.5633 C.ar    1  UNL1       -0.0003
     23 C           3.8219    2.7625   22.5723 C.ar    1  UNL1       -0.0000
     24 C           5.1233    3.0489   21.8834 C.ar    1  UNL1       -0.0003
     25 C           5.8612    1.9451   21.1855 C.ar    1  UNL1       -0.0026
     26 C           5.9301   -1.9576   20.9829 C.3     1  UNL1        0.0967
     27 N           5.1632   -2.9799   20.1974 N.3     1  UNL1       -0.2710
     28 C           3.6855   -2.9676   19.9403 C.3     1  UNL1        0.0722
     29 C           3.3484   -4.1740   19.1152 C.3     1  UNL1        0.0188
     30 C           4.6179   -4.9320   18.8623 C.3     1  UNL1        0.0188
     31 C           5.7395   -4.1939   19.5312 C.3     1  UNL1        0.0722
@<TRIPOS>BOND
     1     1     2    1
     2     2     3   am
     3     3     4    2
     4     3     5    1
     5     5     6    1
     6     6     7   ar
     7     7     8   ar
     8     8     9   ar
     9     9    10   ar
    10    10    11   ar
    11    10    12    1
    12    12    13    1
    13    13    15    1
    14    15    16    1
    15    15    17    2
    16    15    18    2
    17    13    14    1
    18     2    19    1
    19    19    26    1
    20    26    27    1
    21    27    28    1
    22    28    29    1
    23    29    30    1
    24    30    31    1
    25    19    20    1
    26    20    21   ar
    27    21    22   ar
    28    22    23   ar
    29    23    24   ar
    30    24    25   ar
    31    11     6   ar
    32    31    27    1
    33    25    20   ar
    34    14     9    1
@<TRIPOS>MOLECULE
*****
 31 34 0 0 0
SMALL
GASTEIGER

@<TRIPOS>ATOM
      1 C           7.2679    0.8219   19.7339 C.3     1  UNL1        0.1152
      2 N           5.9543    0.1047   19.6343 N.am    1  UNL1       -0.2740
      3 C           5.1738    0.1433   18.3539 C.2     1  UNL1        0.2303
      4 O           5.7070    0.8992   17.1730 O.2     1  UNL1       -0.2745
      5 C           3.8602   -0.5739   18.2543 C.3     1  UNL1        0.1116
      6 C           2.6278    0.0307   18.8593 C.ar    1  UNL1       -0.0134
      7 C           1.7933   -0.7676   19.8165 C.ar    1  UNL1       -0.0041
      8 C           0.5610   -0.1631   20.4215 C.ar    1  UNL1       -0.0034
      9 C           0.1633    1.2397   20.0693 C.ar    1  UNL1       -0.0071
     10 C           0.9979    2.0380   19.1121 C.ar    1  UNL1       -0.0074
     11 C           2.2302    1.4334   18.5071 C.ar    1  UNL1       -0.0069
     12 C           0.3608    3.3868   18.9551 C.3     1  UNL1        0.1218
     13 N          -0.8676    3.4222   19.8153 N.3     1  UNL1       -0.1505
     14 C          -0.9897    2.0952   20.5039 C.3     1  UNL1        0.1218
     15 S          -1.8087    4.5812   19.9613 S.O2    1  UNL1        0.0463
     16 C          -2.7497    5.7401   20.1072 C.3     1  UNL1        0.1960
     17 O          -0.6542    5.5326   19.8507 O.2     1  UNL1       -0.1572
     18 O          -2.9631    3.6299   20.0718 O.2     1  UNL1       -0.1572
     19 C           5.4210   -0.6511   20.8151 C.3     1  UNL1        0.1138
     20 C           4.4620    0.0117   21.7590 C.ar    1  UNL1       -0.0029
     21 C           4.2316    1.4916   21.6776 C.ar    1  UNL1       -0.0026
     22 C           3.2726    2.1544   22.6215 C.ar    1  UNL1       -0.0003
     23 C           2.5439    1.3373   23.6468 C.ar    1  UNL1       -0.0000
     24 C           2.7744   -0.1428   23.7283 C.ar    1  UNL1       -0.0003
     25 C           3.7334   -0.8055   22.7844 C.ar    1  UNL1       -0.0026
     26 C           5.8469   -2.0698   21.0521 C.3     1  UNL1        0.0967
     27 N           5.1781   -3.1877   20.3085 N.3     1  UNL1       -0.2710
     28 C           3.9847   -3.9673   20.7753 C.3     1  UNL1        0.0722
     29 C           3.6542   -4.9838   19.7229 C.3     1  UNL1        0.0188
     30 C           4.6435   -4.8324   18.6055 C.3     1  UNL1        0.0188
     31 C           5.5852   -3.7224   18.9674 C.3     1  UNL1        0.0722
@<TRIPOS>BOND
     1     1     2    1
     2     2     3   am
     3     3     4    2
     4     3     5    1
     5     5     6    1
     6     6     7   ar
     7     7     8   ar
     8     8     9   ar
     9     9    10   ar
    10    10    11   ar
    11    10    12    1
    12    12    13    1
    13    13    15    1
    14    15    16    1
    15    15    17    2
    16    15    18    2
    17    13    14    1
    18     2    19    1
    19    19    26    1
    20    26    27    1
    21    27    28    1
    22    28    29    1
    23    29    30    1
    24    30    31    1
    25    19    20    1
    26    20    21   ar
    27    21    22   ar
    28    22    23   ar
    29    23    24   ar
    30    24    25   ar
    31    11     6   ar
    32    31    27    1
    33    25    20   ar
    34    14     9    1
@<TRIPOS>MOLECULE
*****
 31 34 0 0 0
SMALL
GASTEIGER

@<TRIPOS>ATOM
      1 C           5.4584    2.1287   17.5896 C.3     1  UNL1        0.1152
      2 N           5.0142    1.1390   18.6254 N.am    1  UNL1       -0.2740
      3 C           5.8407    0.9215   19.8582 C.2     1  UNL1        0.2303
      4 O           7.1114    1.6939   20.0551 O.2     1  UNL1       -0.2745
      5 C           5.3965   -0.0683   20.8940 C.3     1  UNL1        0.1116
      6 C           6.2173   -1.2954   21.1596 C.ar    1  UNL1       -0.0134
      7 C           7.3339   -1.6666   20.2294 C.ar    1  UNL1       -0.0041
      8 C           8.1547   -2.8937   20.4949 C.ar    1  UNL1       -0.0034
      9 C           7.8587   -3.7496   21.6907 C.ar    1  UNL1       -0.0071
     10 C           6.7420   -3.3785   22.6208 C.ar    1  UNL1       -0.0074
     11 C           5.9213   -2.1514   22.3553 C.ar    1  UNL1       -0.0069
     12 C           6.6852   -4.4076   23.7106 C.3     1  UNL1        0.1218
     13 N           7.7667   -5.4148   23.4540 N.3     1  UNL1       -0.1505
     14 C           8.4920   -5.0082   22.2056 C.3     1  UNL1        0.1218
     15 S           8.0697   -6.6176   24.2977 S.O2    1  UNL1        0.0463
     16 C           8.3727   -7.8202   25.1413 C.3     1  UNL1        0.1960
     17 O           7.6462   -5.8642   25.5237 O.2     1  UNL1       -0.1572
     18 O           8.4931   -7.3709   23.0716 O.2     1  UNL1       -0.1572
     19 C           3.7435    0.3666   18.4285 C.3     1  UNL1        0.1138
     20 C           2.4557    0.8836   18.9979 C.ar    1  UNL1       -0.0029
     21 C           1.6367    0.0171   19.9080 C.ar    1  UNL1       -0.0026
     22 C           0.3488    0.5341   20.4774 C.ar    1  UNL1       -0.0003
     23 C          -0.1200    1.9176   20.1366 C.ar    1  UNL1       -0.0000
     24 C           0.6991    2.7841   19.2265 C.ar    1  UNL1       -0.0003
     25 C           1.9869    2.2671   18.6571 C.ar    1  UNL1       -0.0026
     26 C           3.7606   -0.9229   17.6623 C.3     1  UNL1        0.0967
     27 N           4.0548   -2.2121   18.3702 N.3     1  UNL1       -0.2710
     28 C           3.2579   -2.8015   19.4962 C.3     1  UNL1        0.0722
     29 C           3.9080   -4.0920   19.8984 C.3     1  UNL1        0.0188
     30 C           5.1067   -4.3003   19.0211 C.3     1  UNL1        0.0188
     31 C           5.1974   -3.1385   18.0766 C.3     1  UNL1        0.0722
@<TRIPOS>BOND
     1     1     2    1
     2     2     3   am
     3     3     4    2
     4     3     5    1
     5     5     6    1
     6     6     7   ar
     7     7     8   ar
     8     8     9   ar
     9     9    10   ar
    10    10    11   ar
    11    10    12    1
    12    12    13    1
    13    13    15    1
    14    15    16    1
    15    15    17    2
    16    15    18    2
    17    13    14    1
    18     2    19    1
    19    19    26    1
    20    26    27    1
    21    27    28    1
    22    28    29    1
    23    29    30    1
    24    30    31    1
    25    19    20    1
    26    20    21   ar
    27    21    22   ar
    28    22    23   ar
    29    23    24   ar
    30    24    25   ar
    31    11     6   ar
    32    31    27    1
    33    25    20   ar
    34    14     9    1
@<TRIPOS>MOLECULE
*****
 31 34 0 0 0
SMALL
GASTEIGER

@<TRIPOS>ATOM
      1 C           0.5865   -0.3140   20.4541 C.3     1  UNL1        0.1152
      2 N           2.0530   -0.0006   20.4245 N.am    1  UNL1       -0.2740
      3 C           2.7108    0.6240   21.6192 C.2     1  UNL1        0.2303
      4 O           1.9019    0.9352   22.8435 O.2     1  UNL1       -0.2745
      5 C           4.1774    0.9373   21.5896 C.3     1  UNL1        0.1116
      6 C           5.1829   -0.1621   21.7643 C.ar    1  UNL1       -0.0134
      7 C           6.4687   -0.1320   20.9925 C.ar    1  UNL1       -0.0041
      8 C           7.4741   -1.2313   21.1673 C.ar    1  UNL1       -0.0034
      9 C           7.1938   -2.3607   22.1138 C.ar    1  UNL1       -0.0071
     10 C           5.9079   -2.3908   22.8856 C.ar    1  UNL1       -0.0074
     11 C           4.9025   -1.2914   22.7109 C.ar    1  UNL1       -0.0069
     12 C           5.9087   -3.6238   23.7397 C.3     1  UNL1        0.1218
     13 N           7.1951   -4.3558   23.4958 N.3     1  UNL1       -0.1505
     14 C           7.9893   -3.5752   22.4909 C.3     1  UNL1        0.1218
     15 S           7.6137   -5.6426   24.1432 S.O2    1  UNL1        0.0463
     16 C           8.0323   -6.9294   24.7905 C.3     1  UNL1        0.1960
     17 O           7.1155   -5.1394   25.4656 O.2     1  UNL1       -0.1572
     18 O           8.1118   -6.1458   22.8209 O.2     1  UNL1       -0.1572
     19 C           2.8619   -0.3119   19.2002 C.3     1  UNL1        0.1138
     20 C           3.6347   -1.5949   19.1181 C.ar    1  UNL1       -0.0029
     21 C           3.2053   -2.7822   19.9279 C.ar    1  UNL1       -0.0026
     22 C           3.9781   -4.0652   19.8458 C.ar    1  UNL1       -0.0003
     23 C           5.1802   -4.1609   18.9537 C.ar    1  UNL1       -0.0000
     24 C           5.6096   -2.9735   18.1439 C.ar    1  UNL1       -0.0003
     25 C           4.8368   -1.6905   18.2260 C.ar    1  UNL1       -0.0026
     26 C           2.8980    0.6599   18.0581 C.3     1  UNL1        0.0967
     27 N           3.3353    2.0756   18.2915 N.3     1  UNL1       -0.2710
     28 C           2.4450    3.2228   18.6677 C.3     1  UNL1        0.0722
     29 C           3.2991    4.4489   18.7984 C.3     1  UNL1        0.0188
     30 C           4.7172    4.0596   18.5030 C.3     1  UNL1        0.0188
     31 C           4.7396    2.5929   18.1898 C.3     1  UNL1        0.0722
@<TRIPOS>BOND
     1     1     2    1
     2     2     3   am
     3     3     4    2
     4     3     5    1
     5     5     6    1
     6     6     7   ar
     7     7     8   ar
     8     8     9   ar
     9     9    10   ar
    10    10    11   ar
    11    10    12    1
    12    12    13    1
    13    13    15    1
    14    15    16    1
    15    15    17    2
    16    15    18    2
    17    13    14    1
    18     2    19    1
    19    19    26    1
    20    26    27    1
    21    27    28    1
    22    28    29    1
    23    29    30    1
    24    30    31    1
    25    19    20    1
    26    20    21   ar
    27    21    22   ar
    28    22    23   ar
    29    23    24   ar
    30    24    25   ar
    31    11     6   ar
    32    31    27    1
    33    25    20   ar
    34    14     9    1
