@<TRIPOS>MOLECULE
*****
 23 26 0 0 0
SMALL
GASTEIGER

@<TRIPOS>ATOM
      1 C         -13.3439  -17.7876   23.6262 C.3     1  UNL1        0.1305
      2 N         -12.1734  -18.2266   22.7971 N.ar    1  UNL1       -0.3240
      3 C         -12.2284  -19.1373   21.6065 C.ar    1  UNL1        0.0760
      4 C         -10.8315  -19.3054   21.0865 C.ar    1  UNL1        0.0201
      5 C          -9.9131  -18.4987   21.9558 C.ar    1  UNL1        0.0185
      6 C          -8.4288  -18.2850   21.9214 C.ar    1  UNL1        0.0161
      7 C          -7.7739  -17.4046   22.9441 C.ar    1  UNL1        0.0514
      8 C          -8.6032  -16.7379   24.0012 C.ar    1  UNL1       -0.0053
      9 C         -10.0876  -16.9515   24.0357 C.ar    1  UNL1        0.0142
     10 C         -10.7425  -17.8319   23.0130 C.ar    1  UNL1        0.0597
     11 C          -7.6848  -15.9311   24.8705 C.3     1  UNL1        0.0496
     12 C          -6.2879  -16.0991   24.3507 C.3     1  UNL1        0.1045
     13 N          -6.3430  -17.0099   23.1600 N.am    1  UNL1       -0.2430
     14 C          -5.1726  -17.4488   22.3309 C.2     1  UNL1        0.3115
     15 O          -5.3827  -18.3670   21.1635 O.2     1  UNL1       -0.2519
     16 N          -3.7920  -16.9696   22.6692 N.am    1  UNL1       -0.2666
     17 H          -3.6541  -16.3669   23.4354 H       1  UNL1        0.1565
     18 C          -2.6215  -17.4085   21.8400 C.ar    1  UNL1        0.0709
     19 C          -1.7325  -16.3858   21.1968 C.ar    1  UNL1        0.0179
     20 C          -0.5621  -16.8247   20.3677 C.ar    1  UNL1        0.0220
     21 C          -0.2807  -18.2864   20.1818 C.ar    1  UNL1        0.0990
     22 N          -1.1697  -19.3090   20.8250 N.ar    1  UNL1       -0.2410
     23 C          -2.3402  -18.8701   21.6541 C.ar    1  UNL1        0.1135
@<TRIPOS>BOND
     1     1     2    1
     2     2     3   ar
     3     3     4   ar
     4     4     5   ar
     5     5     6   ar
     6     6     7   ar
     7     7     8   ar
     8     8     9   ar
     9     9    10   ar
    10     8    11    1
    11    11    12    1
    12    12    13    1
    13    13    14   am
    14    14    15    2
    15    14    16   am
    16    16    18    1
    17    18    19   ar
    18    19    20   ar
    19    20    21   ar
    20    21    22   ar
    21    22    23   ar
    22    10     2   ar
    23    23    18   ar
    24    10     5   ar
    25    13     7    1
    26    16    17    1
@<TRIPOS>MOLECULE
*****
 23 26 0 0 0
SMALL
GASTEIGER

@<TRIPOS>ATOM
      1 C         -14.3422  -18.1023   24.1673 C.3     1  UNL1        0.1305
      2 N         -13.1692  -17.5240   23.4328 N.ar    1  UNL1       -0.3240
      3 C         -13.1461  -16.2160   22.6989 C.ar    1  UNL1        0.0760
      4 C         -11.7759  -16.0357   22.1158 C.ar    1  UNL1        0.0201
      5 C         -10.9521  -17.2324   22.4892 C.ar    1  UNL1        0.0185
      6 C          -9.5292  -17.6033   22.1932 C.ar    1  UNL1        0.0161
      7 C          -8.9674  -18.8940   22.7113 C.ar    1  UNL1        0.0514
      8 C          -9.8284  -19.8138   23.5252 C.ar    1  UNL1       -0.0053
      9 C         -11.2514  -19.4429   23.8212 C.ar    1  UNL1        0.0142
     10 C         -11.8132  -18.1521   23.3032 C.ar    1  UNL1        0.0597
     11 C          -9.0046  -21.0104   23.8987 C.3     1  UNL1        0.0496
     12 C          -7.6344  -20.8303   23.3155 C.3     1  UNL1        0.1045
     13 N          -7.6114  -19.5222   22.5816 N.am    1  UNL1       -0.2430
     14 C          -6.4384  -18.9439   21.8471 C.2     1  UNL1        0.3115
     15 O          -6.5652  -17.6185   21.1564 O.2     1  UNL1       -0.2519
     16 N          -5.1384  -19.6911   21.8033 N.am    1  UNL1       -0.2666
     17 H          -5.0551  -20.5611   22.2566 H       1  UNL1        0.1565
     18 C          -3.9653  -19.1128   21.0688 C.ar    1  UNL1        0.0709
     19 C          -3.8462  -19.2944   19.5845 C.ar    1  UNL1        0.0179
     20 C          -2.6731  -18.7161   18.8500 C.ar    1  UNL1        0.0220
     21 C          -1.6192  -17.9562   19.5997 C.ar    1  UNL1        0.0990
     22 N          -1.7384  -17.7747   21.0839 N.ar    1  UNL1       -0.2410
     23 C          -2.9115  -18.3530   21.8184 C.ar    1  UNL1        0.1135
@<TRIPOS>BOND
     1     1     2    1
     2     2     3   ar
     3     3     4   ar
     4     4     5   ar
     5     5     6   ar
     6     6     7   ar
     7     7     8   ar
     8     8     9   ar
     9     9    10   ar
    10     8    11    1
    11    11    12    1
    12    12    13    1
    13    13    14   am
    14    14    15    2
    15    14    16   am
    16    16    18    1
    17    18    19   ar
    18    19    20   ar
    19    20    21   ar
    20    21    22   ar
    21    22    23   ar
    22    10     2   ar
    23    23    18   ar
    24    10     5   ar
    25    13     7    1
    26    16    17    1
@<TRIPOS>MOLECULE
*****
 23 26 0 0 0
SMALL
GASTEIGER

@<TRIPOS>ATOM
      1 C         -14.1015  -18.3488   22.0895 C.3     1  UNL1        0.1305
      2 N         -12.6911  -17.9952   22.4577 N.ar    1  UNL1       -0.3240
      3 C         -12.2690  -17.1576   23.6282 C.ar    1  UNL1        0.0760
      4 C         -10.7721  -17.0618   23.6140 C.ar    1  UNL1        0.0201
      5 C         -10.2690  -17.8403   22.4346 C.ar    1  UNL1        0.0185
      6 C          -8.8843  -18.0984   21.9190 C.ar    1  UNL1        0.0161
      7 C          -8.6855  -18.9333   20.6889 C.ar    1  UNL1        0.0514
      8 C          -9.8714  -19.5101   19.9743 C.ar    1  UNL1       -0.0053
      9 C         -11.2563  -19.2521   20.4898 C.ar    1  UNL1        0.0142
     10 C         -11.4550  -18.4171   21.7200 C.ar    1  UNL1        0.0597
     11 C          -9.3684  -20.2886   18.7949 C.3     1  UNL1        0.0496
     12 C          -7.8715  -20.1929   18.7805 C.3     1  UNL1        0.1045
     13 N          -7.4495  -19.3552   19.9512 N.am    1  UNL1       -0.2430
     14 C          -6.0390  -19.0016   20.3194 C.2     1  UNL1        0.3115
     15 O          -5.7694  -18.1506   21.5248 O.2     1  UNL1       -0.2519
     16 N          -4.8981  -19.4990   19.4820 N.am    1  UNL1       -0.2666
     17 H          -5.0751  -20.0575   18.6908 H       1  UNL1        0.1565
     18 C          -3.4877  -19.1453   19.8502 C.ar    1  UNL1        0.0709
     19 C          -2.6992  -18.2076   18.9847 C.ar    1  UNL1        0.0179
     20 C          -1.2887  -17.8540   19.3529 C.ar    1  UNL1        0.0220
     21 C          -0.6668  -18.4381   20.5866 C.ar    1  UNL1        0.0990
     22 N          -1.4552  -19.3757   21.4521 N.ar    1  UNL1       -0.2410
     23 C          -2.8657  -19.7294   21.0839 C.ar    1  UNL1        0.1135
@<TRIPOS>BOND
     1     1     2    1
     2     2     3   ar
     3     3     4   ar
     4     4     5   ar
     5     5     6   ar
     6     6     7   ar
     7     7     8   ar
     8     8     9   ar
     9     9    10   ar
    10     8    11    1
    11    11    12    1
    12    12    13    1
    13    13    14   am
    14    14    15    2
    15    14    16   am
    16    16    18    1
    17    18    19   ar
    18    19    20   ar
    19    20    21   ar
    20    21    22   ar
    21    22    23   ar
    22    10     2   ar
    23    23    18   ar
    24    10     5   ar
    25    13     7    1
    26    16    17    1
@<TRIPOS>MOLECULE
*****
 23 26 0 0 0
SMALL
GASTEIGER

@<TRIPOS>ATOM
      1 C          -1.1854  -18.7747   20.2563 C.3     1  UNL1        0.1305
      2 N          -2.2403  -18.5075   21.2886 N.ar    1  UNL1       -0.3240
      3 C          -2.0029  -18.0094   22.6834 C.ar    1  UNL1        0.0760
      4 C          -3.3338  -17.8856   23.3643 C.ar    1  UNL1        0.0201
      5 C          -4.3937  -18.3071   22.3902 C.ar    1  UNL1        0.0185
      6 C          -5.8869  -18.3906   22.5056 C.ar    1  UNL1        0.0161
      7 C          -6.7043  -18.8585   21.3382 C.ar    1  UNL1        0.0514
      8 C          -6.0286  -19.2429   20.0554 C.ar    1  UNL1       -0.0053
      9 C          -4.5353  -19.1594   19.9400 C.ar    1  UNL1        0.0142
     10 C          -3.7179  -18.6915   21.1074 C.ar    1  UNL1        0.0597
     11 C          -7.0886  -19.6644   19.0814 C.3     1  UNL1        0.0496
     12 C          -8.4194  -19.5406   19.7621 C.3     1  UNL1        0.1045
     13 N          -8.1819  -19.0425   21.1570 N.am    1  UNL1       -0.2430
     14 C          -9.2369  -18.7753   22.1893 C.2     1  UNL1        0.3115
     15 O          -8.8464  -18.2766   23.5490 O.2     1  UNL1       -0.2519
     16 N         -10.6823  -19.0068   21.8619 N.am    1  UNL1       -0.2666
     17 H         -10.9386  -19.3341   20.9694 H       1  UNL1        0.1565
     18 C         -11.7373  -18.7396   22.8942 C.ar    1  UNL1        0.0709
     19 C         -12.9732  -17.9748   22.5231 C.ar    1  UNL1        0.0179
     20 C         -14.0281  -17.7076   23.5554 C.ar    1  UNL1        0.0220
     21 C         -13.8472  -18.2052   24.9589 C.ar    1  UNL1        0.0990
     22 N         -12.6113  -18.9700   25.3300 N.ar    1  UNL1       -0.2410
     23 C         -11.5564  -19.2372   24.2976 C.ar    1  UNL1        0.1135
@<TRIPOS>BOND
     1     1     2    1
     2     2     3   ar
     3     3     4   ar
     4     4     5   ar
     5     5     6   ar
     6     6     7   ar
     7     7     8   ar
     8     8     9   ar
     9     9    10   ar
    10     8    11    1
    11    11    12    1
    12    12    13    1
    13    13    14   am
    14    14    15    2
    15    14    16   am
    16    16    18    1
    17    18    19   ar
    18    19    20   ar
    19    20    21   ar
    20    21    22   ar
    21    22    23   ar
    22    10     2   ar
    23    23    18   ar
    24    10     5   ar
    25    13     7    1
    26    16    17    1
@<TRIPOS>MOLECULE
*****
 23 26 0 0 0
SMALL
GASTEIGER

@<TRIPOS>ATOM
      1 C           0.1630  -18.2912   19.9622 C.3     1  UNL1        0.1305
      2 N          -1.0390  -17.7219   20.6558 N.ar    1  UNL1       -0.3240
      3 C          -1.0902  -16.4271   21.4113 C.ar    1  UNL1        0.0760
      4 C          -2.4837  -16.2525   21.9381 C.ar    1  UNL1        0.0201
      5 C          -3.2939  -17.4394   21.5082 C.ar    1  UNL1        0.0185
      6 C          -4.7293  -17.8106   21.7360 C.ar    1  UNL1        0.0161
      7 C          -5.2718  -19.0899   21.1712 C.ar    1  UNL1        0.0514
      8 C          -4.3790  -19.9980   20.3788 C.ar    1  UNL1       -0.0053
      9 C          -2.9436  -19.6269   20.1509 C.ar    1  UNL1        0.0142
     10 C          -2.4010  -18.3476   20.7157 C.ar    1  UNL1        0.0597
     11 C          -5.1892  -21.1849   19.9489 C.3     1  UNL1        0.0496
     12 C          -6.5827  -21.0104   20.4756 C.3     1  UNL1        0.1045
     13 N          -6.6338  -19.7155   21.2311 N.am    1  UNL1       -0.2430
     14 C          -7.8358  -19.1462   21.9247 C.2     1  UNL1        0.3115
     15 O          -7.7352  -17.8337   22.6438 O.2     1  UNL1       -0.2519
     16 N          -9.1385  -19.8896   21.8992 N.am    1  UNL1       -0.2666
     17 H          -9.2045  -20.7510   21.4272 H       1  UNL1        0.1565
     18 C         -10.3405  -19.3203   22.5928 C.ar    1  UNL1        0.0709
     19 C         -10.5061  -19.4974   24.0732 C.ar    1  UNL1        0.0179
     20 C         -11.7081  -18.9281   24.7668 C.ar    1  UNL1        0.0220
     21 C         -12.7445  -18.1818   23.9800 C.ar    1  UNL1        0.0990
     22 N         -12.5789  -18.0047   22.4998 N.ar    1  UNL1       -0.2410
     23 C         -11.3769  -18.5740   21.8062 C.ar    1  UNL1        0.1135
@<TRIPOS>BOND
     1     1     2    1
     2     2     3   ar
     3     3     4   ar
     4     4     5   ar
     5     5     6   ar
     6     6     7   ar
     7     7     8   ar
     8     8     9   ar
     9     9    10   ar
    10     8    11    1
    11    11    12    1
    12    12    13    1
    13    13    14   am
    14    14    15    2
    15    14    16   am
    16    16    18    1
    17    18    19   ar
    18    19    20   ar
    19    20    21   ar
    20    21    22   ar
    21    22    23   ar
    22    10     2   ar
    23    23    18   ar
    24    10     5   ar
    25    13     7    1
    26    16    17    1
@<TRIPOS>MOLECULE
*****
 23 26 0 0 0
SMALL
GASTEIGER

@<TRIPOS>ATOM
      1 C          -0.2397  -18.1985   20.8656 C.3     1  UNL1        0.1305
      2 N          -1.6588  -18.6597   20.7122 N.ar    1  UNL1       -0.3240
      3 C          -2.1400  -19.7394   19.7889 C.ar    1  UNL1        0.0760
      4 C          -3.6245  -19.8692   19.9612 C.ar    1  UNL1        0.0201
      5 C          -4.0607  -18.8696   20.9911 C.ar    1  UNL1        0.0185
      6 C          -5.4071  -18.5434   21.5661 C.ar    1  UNL1        0.0161
      7 C          -5.5387  -17.4698   22.6054 C.ar    1  UNL1        0.0514
      8 C          -4.3239  -16.7223   23.0695 C.ar    1  UNL1       -0.0053
      9 C          -2.9774  -17.0485   22.4944 C.ar    1  UNL1        0.0142
     10 C          -2.8458  -18.1221   21.4552 C.ar    1  UNL1        0.0597
     11 C          -4.7601  -15.7228   24.0993 C.3     1  UNL1        0.0496
     12 C          -6.2445  -15.8524   24.2717 C.3     1  UNL1        0.1045
     13 N          -6.7257  -16.9322   23.3483 N.am    1  UNL1       -0.2430
     14 C          -8.1448  -17.3934   23.1949 C.2     1  UNL1        0.3115
     15 O          -8.4766  -18.4897   22.2264 O.2     1  UNL1       -0.2519
     16 N          -9.2321  -16.7583   24.0101 N.am    1  UNL1       -0.2666
     17 H          -9.0143  -16.0388   24.6458 H       1  UNL1        0.1565
     18 C         -10.6511  -17.2195   23.8567 C.ar    1  UNL1        0.0709
     19 C         -11.5675  -16.5199   22.8970 C.ar    1  UNL1        0.0179
     20 C         -12.9866  -16.9810   22.7436 C.ar    1  UNL1        0.0220
     21 C         -13.4893  -18.1418   23.5498 C.ar    1  UNL1        0.0990
     22 N         -12.5729  -18.8414   24.5094 N.ar    1  UNL1       -0.2410
     23 C         -11.1538  -18.3802   24.6628 C.ar    1  UNL1        0.1135
@<TRIPOS>BOND
     1     1     2    1
     2     2     3   ar
     3     3     4   ar
     4     4     5   ar
     5     5     6   ar
     6     6     7   ar
     7     7     8   ar
     8     8     9   ar
     9     9    10   ar
    10     8    11    1
    11    11    12    1
    12    12    13    1
    13    13    14   am
    14    14    15    2
    15    14    16   am
    16    16    18    1
    17    18    19   ar
    18    19    20   ar
    19    20    21   ar
    20    21    22   ar
    21    22    23   ar
    22    10     2   ar
    23    23    18   ar
    24    10     5   ar
    25    13     7    1
    26    16    17    1
@<TRIPOS>MOLECULE
*****
 23 26 0 0 0
SMALL
GASTEIGER

@<TRIPOS>ATOM
      1 C           6.6860   -2.0664   17.8573 C.3     1  UNL1        0.1305
      2 N           5.3506   -2.0811   18.5404 N.ar    1  UNL1       -0.3240
      3 C           4.7039   -3.2703   19.1866 C.ar    1  UNL1        0.0760
      4 C           3.3811   -2.8335   19.7428 C.ar    1  UNL1        0.0201
      5 C           3.2103   -1.3742   19.4404 C.ar    1  UNL1        0.0185
      6 C           2.1036   -0.4088   19.7457 C.ar    1  UNL1        0.0161
      7 C           2.2142    1.0216   19.3079 C.ar    1  UNL1        0.0514
      8 C           3.4313    1.4866   18.5649 C.ar    1  UNL1       -0.0053
      9 C           4.5381    0.5211   18.2595 C.ar    1  UNL1        0.0142
     10 C           4.4275   -0.9093   18.6973 C.ar    1  UNL1        0.0597
     11 C           3.2605    2.9458   18.2625 C.3     1  UNL1        0.0496
     12 C           1.9378    3.3828   18.8187 C.3     1  UNL1        0.1045
     13 N           1.2911    2.1935   19.4648 N.am    1  UNL1       -0.2430
     14 C          -0.0443    2.1787   20.1479 C.2     1  UNL1        0.3115
     15 O          -0.5640    0.9076   20.7513 O.2     1  UNL1       -0.2519
     16 N          -0.8599    3.4351   20.2276 N.am    1  UNL1       -0.2666
     17 H          -0.5187    4.2694   19.8315 H       1  UNL1        0.1565
     18 C          -2.1952    3.4203   20.9107 C.ar    1  UNL1        0.0709
     19 C          -3.4467    3.2250   20.1070 C.ar    1  UNL1        0.0179
     20 C          -4.7820    3.2102   20.7901 C.ar    1  UNL1        0.0220
     21 C          -4.8659    3.3908   22.2768 C.ar    1  UNL1        0.0990
     22 N          -3.6146    3.5861   23.0804 N.ar    1  UNL1       -0.2410
     23 C          -2.2792    3.6009   22.3974 C.ar    1  UNL1        0.1135
@<TRIPOS>BOND
     1     1     2    1
     2     2     3   ar
     3     3     4   ar
     4     4     5   ar
     5     5     6   ar
     6     6     7   ar
     7     7     8   ar
     8     8     9   ar
     9     9    10   ar
    10     8    11    1
    11    11    12    1
    12    12    13    1
    13    13    14   am
    14    14    15    2
    15    14    16   am
    16    16    18    1
    17    18    19   ar
    18    19    20   ar
    19    20    21   ar
    20    21    22   ar
    21    22    23   ar
    22    10     2   ar
    23    23    18   ar
    24    10     5   ar
    25    13     7    1
    26    16    17    1
@<TRIPOS>MOLECULE
*****
 23 26 0 0 0
SMALL
GASTEIGER

@<TRIPOS>ATOM
      1 C           6.1261   -3.9209   22.3121 C.3     1  UNL1        0.1305
      2 N           5.1663   -3.3324   21.3209 N.ar    1  UNL1       -0.3240
      3 C           5.0457   -3.7158   19.8758 C.ar    1  UNL1        0.0760
      4 C           3.9634   -2.8776   19.2625 C.ar    1  UNL1        0.0201
      5 C           3.4151   -1.9761   20.3287 C.ar    1  UNL1        0.0185
      6 C           2.3349   -0.9356   20.3055 C.ar    1  UNL1        0.0161
      7 C           1.9982   -0.1762   21.5544 C.ar    1  UNL1        0.0514
      8 C           2.7415   -0.4573   22.8265 C.ar    1  UNL1       -0.0053
      9 C           3.8218   -1.4978   22.8498 C.ar    1  UNL1        0.0142
     10 C           4.1585   -2.2572   21.6008 C.ar    1  UNL1        0.0597
     11 C           2.1932    0.4442   23.8926 C.3     1  UNL1        0.0496
     12 C           1.1110    1.2825   23.2795 C.3     1  UNL1        0.1045
     13 N           0.9904    0.8990   21.8343 N.am    1  UNL1       -0.2430
     14 C           0.0306    1.4874   20.8431 C.2     1  UNL1        0.3115
     15 O           0.0255    1.0009   19.4242 O.2     1  UNL1       -0.2519
     16 N          -0.9242    2.5624   21.2709 N.am    1  UNL1       -0.2666
     17 H          -0.9209    2.8817   22.2022 H       1  UNL1        0.1565
     18 C          -1.8841    3.1508   20.2797 C.ar    1  UNL1        0.0709
     19 C          -3.3604    3.0907   20.5386 C.ar    1  UNL1        0.0179
     20 C          -4.3202    3.6791   19.5474 C.ar    1  UNL1        0.0220
     21 C          -3.8037    4.3277   18.2973 C.ar    1  UNL1        0.0990
     22 N          -2.3275    4.3878   18.0384 N.ar    1  UNL1       -0.2410
     23 C          -1.3676    3.7994   19.0296 C.ar    1  UNL1        0.1135
@<TRIPOS>BOND
     1     1     2    1
     2     2     3   ar
     3     3     4   ar
     4     4     5   ar
     5     5     6   ar
     6     6     7   ar
     7     7     8   ar
     8     8     9   ar
     9     9    10   ar
    10     8    11    1
    11    11    12    1
    12    12    13    1
    13    13    14   am
    14    14    15    2
    15    14    16   am
    16    16    18    1
    17    18    19   ar
    18    19    20   ar
    19    20    21   ar
    20    21    22   ar
    21    22    23   ar
    22    10     2   ar
    23    23    18   ar
    24    10     5   ar
    25    13     7    1
    26    16    17    1
@<TRIPOS>MOLECULE
*****
 23 26 0 0 0
SMALL
GASTEIGER

@<TRIPOS>ATOM
      1 C           1.8421    0.5935   18.3006 C.3     1  UNL1        0.1305
      2 N           2.8490   -0.4533   18.6753 N.ar    1  UNL1       -0.3240
      3 C           3.6347   -1.3027   17.7207 C.ar    1  UNL1        0.0760
      4 C           4.5183   -2.2088   18.5258 C.ar    1  UNL1        0.0201
      5 C           4.2788   -1.9194   19.9780 C.ar    1  UNL1        0.0185
      6 C           4.8667   -2.5037   21.2281 C.ar    1  UNL1        0.0161
      7 C           4.4230   -2.0030   22.5707 C.ar    1  UNL1        0.0514
      8 C           3.3914   -0.9181   22.6631 C.ar    1  UNL1       -0.0053
      9 C           2.8034   -0.3338   21.4129 C.ar    1  UNL1        0.0142
     10 C           3.2471   -0.8345   20.0703 C.ar    1  UNL1        0.0597
     11 C           3.1518   -0.6288   24.1153 C.3     1  UNL1        0.0496
     12 C           4.0353   -1.5348   24.9204 C.3     1  UNL1        0.1045
     13 N           4.8210   -2.3842   23.9657 N.am    1  UNL1       -0.2430
     14 C           5.8280   -3.4310   24.3404 C.2     1  UNL1        0.3115
     15 O           6.5389   -4.2050   23.2702 O.2     1  UNL1       -0.2519
     16 N           6.1239   -3.7038   25.7855 N.am    1  UNL1       -0.2666
     17 H           5.6573   -3.1958   26.4879 H       1  UNL1        0.1565
     18 C           7.1308   -4.7506   26.1602 C.ar    1  UNL1        0.0709
     19 C           6.7402   -6.1989   26.1664 C.ar    1  UNL1        0.0179
     20 C           7.7471   -7.2456   26.5411 C.ar    1  UNL1        0.0220
     21 C           9.1447   -6.8441   26.9095 C.ar    1  UNL1        0.0990
     22 N           9.5352   -5.3959   26.9033 N.ar    1  UNL1       -0.2410
     23 C           8.5283   -4.3491   26.5286 C.ar    1  UNL1        0.1135
@<TRIPOS>BOND
     1     1     2    1
     2     2     3   ar
     3     3     4   ar
     4     4     5   ar
     5     5     6   ar
     6     6     7   ar
     7     7     8   ar
     8     8     9   ar
     9     9    10   ar
    10     8    11    1
    11    11    12    1
    12    12    13    1
    13    13    14   am
    14    14    15    2
    15    14    16   am
    16    16    18    1
    17    18    19   ar
    18    19    20   ar
    19    20    21   ar
    20    21    22   ar
    21    22    23   ar
    22    10     2   ar
    23    23    18   ar
    24    10     5   ar
    25    13     7    1
    26    16    17    1
