@<TRIPOS>MOLECULE
*****
 23 26 0 0 0
SMALL
GASTEIGER

@<TRIPOS>ATOM
      1 C          -3.2163  -18.6011   21.5541 C.ar    1  UNL1       -0.0209
      2 C          -3.9414  -18.0917   22.7643 C.ar    1  UNL1       -0.0041
      3 C          -5.4376  -18.1745   22.8324 C.ar    1  UNL1        0.0048
      4 C          -6.2087  -18.7666   21.6901 C.ar    1  UNL1        0.0623
      5 C          -5.4836  -19.2760   20.4799 C.ar    1  UNL1        0.0771
      6 C          -3.9874  -19.1933   20.4119 C.ar    1  UNL1        0.0125
      7 N          -6.2547  -19.8682   19.3376 N.am    1  UNL1       -0.1721
      8 C          -7.7509  -19.9510   19.4056 C.2     1  UNL1        0.3160
      9 O          -8.5220  -20.5431   18.2634 O.2     1  UNL1       -0.2638
     10 C          -8.4760  -19.4415   20.6160 C.2     1  UNL1        0.2907
     11 N          -9.9339  -19.3903   20.9648 N.2     1  UNL1       -0.0256
     12 C         -10.0638  -18.7664   22.3228 C.2     1  UNL1        0.3765
     13 N          -8.6862  -18.4321   22.8130 N.2     1  UNL1       -0.0302
     14 C          -7.7048  -18.8494   21.7582 C.2     1  UNL1        0.2419
     15 C         -11.3463  -18.5201   23.0608 C.ar    1  UNL1        0.0989
     16 C         -11.5262  -19.0543   24.4508 C.ar    1  UNL1        0.0085
     17 C         -12.8086  -18.8079   25.1888 C.ar    1  UNL1        0.0003
     18 C         -13.9112  -18.0274   24.5367 C.ar    1  UNL1        0.0009
     19 C         -13.7313  -17.4933   23.1467 C.ar    1  UNL1        0.0116
     20 C         -12.4489  -17.7396   22.4087 C.ar    1  UNL1        0.0651
     21 CL        -12.2689  -17.2054   21.0186 Cl      1  UNL1       -0.0820
     22 C          -1.0461  -18.1748   20.1908 C.3     1  UNL1        0.0050
     23 C          -1.7202  -18.5184   21.4860 C.3     1  UNL1        0.0264
@<TRIPOS>BOND
     1    22    23    1
     2    23     1    1
     3     1     2   ar
     4     2     3   ar
     5     3     4   ar
     6     4     5   ar
     7     5     6   ar
     8     5     7    2
     9     7     8    1
    10     8     9    2
    11     8    10    1
    12    10    11    2
    13    11    12    1
    14    12    15    1
    15    15    16   ar
    16    16    17   ar
    17    17    18   ar
    18    18    19   ar
    19    19    20   ar
    20    20    21    1
    21    12    13    2
    22    13    14    1
    23     6     1   ar
    24    14    10    1
    25    14     4    2
    26    20    15   ar
@<TRIPOS>MOLECULE
*****
 23 26 0 0 0
SMALL
GASTEIGER

@<TRIPOS>ATOM
      1 C          -2.0613  -18.1673   21.5288 C.ar    1  UNL1       -0.0209
      2 C          -2.9105  -17.3205   22.4298 C.ar    1  UNL1       -0.0041
      3 C          -4.3883  -17.5632   22.5137 C.ar    1  UNL1        0.0048
      4 C          -5.0170  -18.6528   21.6967 C.ar    1  UNL1        0.0623
      5 C          -4.1678  -19.4996   20.7958 C.ar    1  UNL1        0.0771
      6 C          -2.6900  -19.2569   20.7118 C.ar    1  UNL1        0.0125
      7 N          -4.7965  -20.5893   19.9787 N.am    1  UNL1       -0.1721
      8 C          -6.2743  -20.8320   20.0626 C.2     1  UNL1        0.3160
      9 O          -6.9030  -21.9216   19.2456 O.2     1  UNL1       -0.2638
     10 C          -7.1235  -19.9851   20.9636 C.2     1  UNL1        0.2907
     11 N          -8.5955  -19.9902   21.2519 N.2     1  UNL1       -0.0256
     12 C          -8.8766  -18.9037   22.2471 C.2     1  UNL1        0.3765
     13 N          -7.5783  -18.2272   22.5739 N.2     1  UNL1       -0.0302
     14 C          -6.4948  -18.8956   21.7806 C.2     1  UNL1        0.2419
     15 C         -10.2202  -18.5549   22.8158 C.ar    1  UNL1        0.0989
     16 C         -11.0645  -17.5056   22.1556 C.ar    1  UNL1        0.0085
     17 C         -12.4080  -17.1568   22.7242 C.ar    1  UNL1        0.0003
     18 C         -12.9071  -17.8575   23.9530 C.ar    1  UNL1        0.0009
     19 C         -12.0628  -18.9068   24.6132 C.ar    1  UNL1        0.0116
     20 C         -10.7193  -19.2555   24.0446 C.ar    1  UNL1        0.0651
     21 CL         -9.8748  -20.3049   24.7048 Cl      1  UNL1       -0.0820
     22 C           0.0605  -17.6703   20.1143 C.3     1  UNL1        0.0050
     23 C          -0.5835  -17.9246   21.4449 C.3     1  UNL1        0.0264
@<TRIPOS>BOND
     1    22    23    1
     2    23     1    1
     3     1     2   ar
     4     2     3   ar
     5     3     4   ar
     6     4     5   ar
     7     5     6   ar
     8     5     7    2
     9     7     8    1
    10     8     9    2
    11     8    10    1
    12    10    11    2
    13    11    12    1
    14    12    15    1
    15    15    16   ar
    16    16    17   ar
    17    17    18   ar
    18    18    19   ar
    19    19    20   ar
    20    20    21    1
    21    12    13    2
    22    13    14    1
    23     6     1   ar
    24    14    10    1
    25    14     4    2
    26    20    15   ar
@<TRIPOS>MOLECULE
*****
 23 26 0 0 0
SMALL
GASTEIGER

@<TRIPOS>ATOM
      1 C           2.2752   -0.8069   20.3196 C.ar    1  UNL1       -0.0209
      2 C           2.9773   -2.0341   19.8187 C.ar    1  UNL1       -0.0041
      3 C           3.9137   -2.7830   20.7200 C.ar    1  UNL1        0.0048
      4 C           4.1480   -2.3047   22.1222 C.ar    1  UNL1        0.0623
      5 C           3.4459   -1.0775   22.6231 C.ar    1  UNL1        0.0771
      6 C           2.5095   -0.3286   21.7219 C.ar    1  UNL1        0.0125
      7 N           3.6802   -0.5991   24.0254 N.am    1  UNL1       -0.1721
      8 C           4.6166   -1.3480   24.9267 C.2     1  UNL1        0.3160
      9 O           4.8509   -0.8697   26.3289 O.2     1  UNL1       -0.2638
     10 C           5.3187   -2.5753   24.4257 C.2     1  UNL1        0.2907
     11 N           6.2907   -3.5125   25.0789 N.2     1  UNL1       -0.0256
     12 C           6.6572   -4.5701   24.0803 C.2     1  UNL1        0.3765
     13 N           5.9116   -4.2865   22.8100 N.2     1  UNL1       -0.0302
     14 C           5.0844   -3.0536   23.0235 C.2     1  UNL1        0.2419
     15 C           7.6032   -5.7110   24.3114 C.ar    1  UNL1        0.0989
     16 C           8.5897   -6.0945   23.2485 C.ar    1  UNL1        0.0085
     17 C           9.5356   -7.2354   23.4797 C.ar    1  UNL1        0.0003
     18 C           9.4951   -7.9928   24.7738 C.ar    1  UNL1        0.0009
     19 C           8.5087   -7.6094   25.8367 C.ar    1  UNL1        0.0116
     20 C           7.5627   -6.4685   25.6055 C.ar    1  UNL1        0.0651
     21 CL          6.5762   -6.0849   26.6685 Cl      1  UNL1       -0.0820
     22 C           1.8833    0.8985   18.3992 C.3     1  UNL1        0.0050
     23 C           1.3388   -0.0580   19.4183 C.3     1  UNL1        0.0264
@<TRIPOS>BOND
     1    22    23    1
     2    23     1    1
     3     1     2   ar
     4     2     3   ar
     5     3     4   ar
     6     4     5   ar
     7     5     6   ar
     8     5     7    2
     9     7     8    1
    10     8     9    2
    11     8    10    1
    12    10    11    2
    13    11    12    1
    14    12    15    1
    15    15    16   ar
    16    16    17   ar
    17    17    18   ar
    18    18    19   ar
    19    19    20   ar
    20    20    21    1
    21    12    13    2
    22    13    14    1
    23     6     1   ar
    24    14    10    1
    25    14     4    2
    26    20    15   ar
@<TRIPOS>MOLECULE
*****
 23 26 0 0 0
SMALL
GASTEIGER

@<TRIPOS>ATOM
      1 C           3.9834   -2.7829   19.9418 C.ar    1  UNL1       -0.0209
      2 C           2.9027   -1.7486   19.8324 C.ar    1  UNL1       -0.0041
      3 C           2.4907   -0.9634   21.0423 C.ar    1  UNL1        0.0048
      4 C           3.1596   -1.2126   22.3616 C.ar    1  UNL1        0.0623
      5 C           4.2403   -2.2470   22.4710 C.ar    1  UNL1        0.0771
      6 C           4.6522   -3.0321   21.2611 C.ar    1  UNL1        0.0125
      7 N           4.9092   -2.4962   23.7903 N.am    1  UNL1       -0.1721
      8 C           4.4973   -1.7111   25.0002 C.2     1  UNL1        0.3160
      9 O           5.1661   -1.9603   26.3195 O.2     1  UNL1       -0.2638
     10 C           3.4165   -0.6766   24.8908 C.2     1  UNL1        0.2907
     11 N           2.8036    0.2454   25.9027 N.2     1  UNL1       -0.0256
     12 C           1.7559    1.0645   25.2089 C.2     1  UNL1        0.3765
     13 N           1.7214    0.6487   23.7681 N.2     1  UNL1       -0.0302
     14 C           2.7477   -0.4274   23.5715 C.2     1  UNL1        0.2419
     15 C           0.8941    2.1151   25.8443 C.ar    1  UNL1        0.0989
     16 C          -0.5418    1.8173   26.1596 C.ar    1  UNL1        0.0085
     17 C          -1.4035    2.8678   26.7950 C.ar    1  UNL1        0.0003
     18 C          -0.8294    4.2161   27.1151 C.ar    1  UNL1        0.0009
     19 C           0.6065    4.5139   26.7998 C.ar    1  UNL1        0.0116
     20 C           1.4683    3.4634   26.1644 C.ar    1  UNL1        0.0651
     21 CL          2.9043    3.7611   25.8490 Cl      1  UNL1       -0.0820
     22 C           4.5891   -5.0522   18.8312 C.3     1  UNL1        0.0050
     23 C           4.3953   -3.5681   18.7319 C.3     1  UNL1        0.0264
@<TRIPOS>BOND
     1    22    23    1
     2    23     1    1
     3     1     2   ar
     4     2     3   ar
     5     3     4   ar
     6     4     5   ar
     7     5     6   ar
     8     5     7    2
     9     7     8    1
    10     8     9    2
    11     8    10    1
    12    10    11    2
    13    11    12    1
    14    12    15    1
    15    15    16   ar
    16    16    17   ar
    17    17    18   ar
    18    18    19   ar
    19    19    20   ar
    20    20    21    1
    21    12    13    2
    22    13    14    1
    23     6     1   ar
    24    14    10    1
    25    14     4    2
    26    20    15   ar
@<TRIPOS>MOLECULE
*****
 23 26 0 0 0
SMALL
GASTEIGER

@<TRIPOS>ATOM
      1 C           4.1499   -2.6627   19.8729 C.ar    1  UNL1       -0.0209
      2 C           4.5948   -2.6555   21.3054 C.ar    1  UNL1       -0.0041
      3 C           3.9007   -1.7750   22.3019 C.ar    1  UNL1        0.0048
      4 C           2.7618   -0.9016   21.8659 C.ar    1  UNL1        0.0623
      5 C           2.3170   -0.9088   20.4334 C.ar    1  UNL1        0.0771
      6 C           3.0110   -1.7894   19.4369 C.ar    1  UNL1        0.0125
      7 N           1.1780   -0.0355   19.9973 N.am    1  UNL1       -0.1721
      8 C           0.4840    0.8451   20.9938 C.2     1  UNL1        0.3160
      9 O          -0.6549    1.7184   20.5578 O.2     1  UNL1       -0.2638
     10 C           0.9289    0.8523   22.4263 C.2     1  UNL1        0.2907
     11 N           0.4401    1.6096   23.6252 N.2     1  UNL1       -0.0256
     12 C           1.2769    1.2043   24.8023 C.2     1  UNL1        0.3765
     13 N           2.2829    0.1965   24.3308 N.2     1  UNL1       -0.0302
     14 C           2.0678   -0.0211   22.8623 C.2     1  UNL1        0.2419
     15 C           1.1331    1.7169   26.2047 C.ar    1  UNL1        0.0989
     16 C           0.0209    1.2141   27.0766 C.ar    1  UNL1        0.0085
     17 C          -0.1230    1.7267   28.4789 C.ar    1  UNL1        0.0003
     18 C           0.8454    2.7421   29.0093 C.ar    1  UNL1        0.0009
     19 C           1.9576    3.2448   28.1374 C.ar    1  UNL1        0.0116
     20 C           2.1014    2.7322   26.7351 C.ar    1  UNL1        0.0651
     21 CL          3.2136    3.2350   25.8632 Cl      1  UNL1       -0.0820
     22 C           4.5312   -5.0094   18.8252 C.3     1  UNL1        0.0050
     23 C           4.8439   -3.5433   18.8765 C.3     1  UNL1        0.0264
@<TRIPOS>BOND
     1    22    23    1
     2    23     1    1
     3     1     2   ar
     4     2     3   ar
     5     3     4   ar
     6     4     5   ar
     7     5     6   ar
     8     5     7    2
     9     7     8    1
    10     8     9    2
    11     8    10    1
    12    10    11    2
    13    11    12    1
    14    12    15    1
    15    15    16   ar
    16    16    17   ar
    17    17    18   ar
    18    18    19   ar
    19    19    20   ar
    20    20    21    1
    21    12    13    2
    22    13    14    1
    23     6     1   ar
    24    14    10    1
    25    14     4    2
    26    20    15   ar
@<TRIPOS>MOLECULE
*****
 23 26 0 0 0
SMALL
GASTEIGER

@<TRIPOS>ATOM
      1 C           3.8637   -1.5946   19.0418 C.ar    1  UNL1       -0.0209
      2 C           2.6540   -1.9417   19.8579 C.ar    1  UNL1       -0.0041
      3 C           1.6138   -0.8980   20.1386 C.ar    1  UNL1        0.0048
      4 C           1.7834    0.4928   19.6031 C.ar    1  UNL1        0.0623
      5 C           2.9932    0.8400   18.7870 C.ar    1  UNL1        0.0771
      6 C           4.0333   -0.2038   18.5064 C.ar    1  UNL1        0.0125
      7 N           3.1628    2.2309   18.2515 N.am    1  UNL1       -0.1721
      8 C           2.1227    3.2746   18.5322 C.2     1  UNL1        0.3160
      9 O           2.2923    4.6654   17.9967 O.2     1  UNL1       -0.2638
     10 C           0.9129    2.9274   19.3483 C.2     1  UNL1        0.2907
     11 N          -0.2700    3.7397   19.7850 N.2     1  UNL1       -0.0256
     12 C          -1.1708    2.8509   20.5904 C.2     1  UNL1        0.3765
     13 N          -0.5445    1.4893   20.6514 N.2     1  UNL1       -0.0302
     14 C           0.7433    1.5366   19.8837 C.2     1  UNL1        0.2419
     15 C          -2.4698    3.2531   21.2236 C.ar    1  UNL1        0.0989
     16 C          -3.7288    3.2675   20.4084 C.ar    1  UNL1        0.0085
     17 C          -5.0277    3.6697   21.0416 C.ar    1  UNL1        0.0003
     18 C          -5.0676    4.0575   22.4900 C.ar    1  UNL1        0.0009
     19 C          -3.8086    4.0431   23.3053 C.ar    1  UNL1        0.0116
     20 C          -2.5097    3.6409   22.6721 C.ar    1  UNL1        0.0651
     21 CL         -1.2506    3.6265   23.4873 Cl      1  UNL1       -0.0820
     22 C           4.5716   -4.0917   18.9264 C.3     1  UNL1        0.0050
     23 C           4.9038   -2.6383   18.7612 C.3     1  UNL1        0.0264
@<TRIPOS>BOND
     1    22    23    1
     2    23     1    1
     3     1     2   ar
     4     2     3   ar
     5     3     4   ar
     6     4     5   ar
     7     5     6   ar
     8     5     7    2
     9     7     8    1
    10     8     9    2
    11     8    10    1
    12    10    11    2
    13    11    12    1
    14    12    15    1
    15    15    16   ar
    16    16    17   ar
    17    17    18   ar
    18    18    19   ar
    19    19    20   ar
    20    20    21    1
    21    12    13    2
    22    13    14    1
    23     6     1   ar
    24    14    10    1
    25    14     4    2
    26    20    15   ar
@<TRIPOS>MOLECULE
*****
 23 26 0 0 0
SMALL
GASTEIGER

@<TRIPOS>ATOM
      1 C           3.2320   -0.8582   19.1901 C.ar    1  UNL1       -0.0209
      2 C           2.0324   -1.2528   19.9994 C.ar    1  UNL1       -0.0041
      3 C           0.9322   -0.2624   20.2416 C.ar    1  UNL1        0.0048
      4 C           1.0317    1.1227   19.6745 C.ar    1  UNL1        0.0623
      5 C           2.2313    1.5173   18.8651 C.ar    1  UNL1        0.0771
      6 C           3.3315    0.5268   18.6229 C.ar    1  UNL1        0.0125
      7 N           2.3309    2.9023   18.2978 N.am    1  UNL1       -0.1721
      8 C           1.2307    3.8928   18.5400 C.2     1  UNL1        0.3160
      9 O           1.3302    5.2778   17.9728 O.2     1  UNL1       -0.2638
     10 C           0.0310    3.4982   19.3495 C.2     1  UNL1        0.2907
     11 N          -1.2010    4.2534   19.7516 N.2     1  UNL1       -0.0256
     12 C          -2.0620    3.3350   20.5673 C.2     1  UNL1        0.3765
     13 N          -1.3620    2.0123   20.6693 N.2     1  UNL1       -0.0302
     14 C          -0.0684    2.1131   19.9166 C.2     1  UNL1        0.2419
     15 C          -3.3898    3.6791   21.1745 C.ar    1  UNL1        0.0989
     16 C          -3.5099    3.8681   22.6576 C.ar    1  UNL1        0.0085
     17 C          -4.8377    4.2121   23.2647 C.ar    1  UNL1        0.0003
     18 C          -6.0454    4.3671   22.3886 C.ar    1  UNL1        0.0009
     19 C          -5.9252    4.1781   20.9055 C.ar    1  UNL1        0.0116
     20 C          -4.5974    3.8341   20.2984 C.ar    1  UNL1        0.0651
     21 CL         -4.4773    3.6451   18.8152 Cl      1  UNL1       -0.0820
     22 C           4.0348   -3.3188   18.9640 C.3     1  UNL1        0.0050
     23 C           4.3322   -1.8487   18.9479 C.3     1  UNL1        0.0264
@<TRIPOS>BOND
     1    22    23    1
     2    23     1    1
     3     1     2   ar
     4     2     3   ar
     5     3     4   ar
     6     4     5   ar
     7     5     6   ar
     8     5     7    2
     9     7     8    1
    10     8     9    2
    11     8    10    1
    12    10    11    2
    13    11    12    1
    14    12    15    1
    15    15    16   ar
    16    16    17   ar
    17    17    18   ar
    18    18    19   ar
    19    19    20   ar
    20    20    21    1
    21    12    13    2
    22    13    14    1
    23     6     1   ar
    24    14    10    1
    25    14     4    2
    26    20    15   ar
@<TRIPOS>MOLECULE
*****
 23 26 0 0 0
SMALL
GASTEIGER

@<TRIPOS>ATOM
      1 C           0.0281    2.4296   26.1039 C.ar    1  UNL1       -0.0209
      2 C          -0.1379    2.2572   24.6231 C.ar    1  UNL1       -0.0041
      3 C           0.7629    1.3228   23.8712 C.ar    1  UNL1        0.0048
      4 C           1.8297    0.5608   24.5999 C.ar    1  UNL1        0.0623
      5 C           1.9958    0.7332   26.0807 C.ar    1  UNL1        0.0771
      6 C           1.0949    1.6676   26.8327 C.ar    1  UNL1        0.0125
      7 N           3.0626   -0.0288   26.8096 N.am    1  UNL1       -0.1721
      8 C           3.9635   -0.9632   26.0576 C.2     1  UNL1        0.3160
      9 O           5.0303   -1.7252   26.7864 O.2     1  UNL1       -0.2638
     10 C           3.7974   -1.1356   24.5768 C.2     1  UNL1        0.2907
     11 N           4.5306   -1.9788   23.5761 N.2     1  UNL1       -0.0256
     12 C           3.9168   -1.7379   22.2287 C.2     1  UNL1        0.3765
     13 N           2.8044   -0.7458   22.3968 N.2     1  UNL1       -0.0302
     14 C           2.7306   -0.3736   23.8480 C.2     1  UNL1        0.2419
     15 C           4.3411   -2.3769   20.9396 C.ar    1  UNL1        0.0989
     16 C           4.1105   -3.8423   20.7174 C.ar    1  UNL1        0.0085
     17 C           4.5348   -4.4813   19.4284 C.ar    1  UNL1        0.0003
     18 C           5.1896   -3.6548   18.3615 C.ar    1  UNL1        0.0009
     19 C           5.4201   -2.1894   18.5837 C.ar    1  UNL1        0.0116
     20 C           4.9958   -1.5504   19.8727 C.ar    1  UNL1        0.0651
     21 CL          5.2263   -0.0850   20.0949 Cl      1  UNL1       -0.0820
     22 C          -2.3429    3.3893   26.5593 C.3     1  UNL1        0.0050
     23 C          -0.8727    3.3640   26.8558 C.3     1  UNL1        0.0264
@<TRIPOS>BOND
     1    22    23    1
     2    23     1    1
     3     1     2   ar
     4     2     3   ar
     5     3     4   ar
     6     4     5   ar
     7     5     6   ar
     8     5     7    2
     9     7     8    1
    10     8     9    2
    11     8    10    1
    12    10    11    2
    13    11    12    1
    14    12    15    1
    15    15    16   ar
    16    16    17   ar
    17    17    18   ar
    18    18    19   ar
    19    19    20   ar
    20    20    21    1
    21    12    13    2
    22    13    14    1
    23     6     1   ar
    24    14    10    1
    25    14     4    2
    26    20    15   ar
@<TRIPOS>MOLECULE
*****
 23 26 0 0 0
SMALL
GASTEIGER

@<TRIPOS>ATOM
      1 C           1.2340    0.9255   29.6862 C.ar    1  UNL1       -0.0209
      2 C           1.2646    2.0736   30.6509 C.ar    1  UNL1       -0.0041
      3 C           2.0627    1.9687   31.9166 C.ar    1  UNL1        0.0048
      4 C           2.8301    0.7155   32.2176 C.ar    1  UNL1        0.0623
      5 C           2.7995   -0.4327   31.2530 C.ar    1  UNL1        0.0771
      6 C           2.0014   -0.3277   29.9872 C.ar    1  UNL1        0.0125
      7 N           3.5669   -1.6859   31.5539 N.am    1  UNL1       -0.1721
      8 C           4.3650   -1.7908   32.8197 C.2     1  UNL1        0.3160
      9 O           5.1324   -3.0440   33.1207 O.2     1  UNL1       -0.2638
     10 C           4.3956   -0.6426   33.7844 C.2     1  UNL1        0.2907
     11 N           5.0878   -0.4570   35.1021 N.2     1  UNL1       -0.0256
     12 C           4.7482    0.9108   35.6155 C.2     1  UNL1        0.3765
     13 N           3.8461    1.5706   34.6151 N.2     1  UNL1       -0.0302
     14 C           3.6282    0.6106   33.4834 C.2     1  UNL1        0.2419
     15 C           5.2267    1.5132   36.9033 C.ar    1  UNL1        0.0989
     16 C           6.6542    1.9528   37.0408 C.ar    1  UNL1        0.0085
     17 C           7.1326    2.5551   38.3286 C.ar    1  UNL1        0.0003
     18 C           6.1836    2.7177   39.4787 C.ar    1  UNL1        0.0009
     19 C           4.7561    2.2781   39.3412 C.ar    1  UNL1        0.0116
     20 C           4.2777    1.6758   38.0534 C.ar    1  UNL1        0.0651
     21 CL          2.8502    1.2361   37.9158 Cl      1  UNL1       -0.0820
     22 C          -0.9684    0.5053   28.3736 C.3     1  UNL1        0.0050
     23 C           0.4359    1.0304   28.4205 C.3     1  UNL1        0.0264
@<TRIPOS>BOND
     1    22    23    1
     2    23     1    1
     3     1     2   ar
     4     2     3   ar
     5     3     4   ar
     6     4     5   ar
     7     5     6   ar
     8     5     7    2
     9     7     8    1
    10     8     9    2
    11     8    10    1
    12    10    11    2
    13    11    12    1
    14    12    15    1
    15    15    16   ar
    16    16    17   ar
    17    17    18   ar
    18    18    19   ar
    19    19    20   ar
    20    20    21    1
    21    12    13    2
    22    13    14    1
    23     6     1   ar
    24    14    10    1
    25    14     4    2
    26    20    15   ar
