@<TRIPOS>MOLECULE
*****
 47 51 0 0 0
SMALL
GASTEIGER

@<TRIPOS>ATOM
      1 C           0.4301    3.3923   22.2924 C.3     1  UNL1        0.2054
      2 O          -1.0594    3.4524   22.4588 O.3     1  UNL1       -0.4755
      3 C          -1.6595    3.4903   23.8330 C.ar    1  UNL1        0.1386
      4 C          -3.0026    4.1229   24.0476 C.ar    1  UNL1        0.0369
      5 C          -3.6027    4.1609   25.4218 C.ar    1  UNL1        0.0031
      6 C          -2.8599    3.5664   26.5814 C.ar    1  UNL1        0.0003
      7 C          -1.5168    2.9338   26.3668 C.ar    1  UNL1        0.0052
      8 C          -0.9167    2.8958   24.9926 C.ar    1  UNL1        0.0370
      9 C          -4.9459    4.7935   25.6364 C.ar    1  UNL1        0.0033
     10 C          -5.2408    5.5100   26.9207 C.ar    1  UNL1        0.0033
     11 C          -6.5839    6.1426   27.1353 C.ar    1  UNL1        0.0402
     12 C          -7.6320    6.0587   26.0655 C.ar    1  UNL1        0.1764
     13 C          -7.3370    5.3422   24.7811 C.ar    1  UNL1        0.1764
     14 C          -5.9940    4.7096   24.5665 C.ar    1  UNL1        0.0402
     15 O          -8.5588    5.4220   23.9146 O.3     1  UNL1       -0.4346
     16 C          -9.6089    6.1879   24.6635 C.3     1  UNL1        0.4294
     17 O          -9.0361    6.5813   25.9928 O.3     1  UNL1       -0.4346
     18 C          -0.7740    2.3392   27.5264 C.ar    1  UNL1        0.0276
     19 C          -0.9838    0.8999   27.8930 C.ar    1  UNL1        0.0022
     20 C          -0.2409    0.3054   29.0526 C.ar    1  UNL1        0.0001
     21 C           0.7118    1.1502   29.8455 C.ar    1  UNL1        0.0023
     22 C           0.9216    2.5895   29.4789 C.ar    1  UNL1        0.0296
     23 C           0.1787    3.1840   28.3193 C.ar    1  UNL1        0.1401
     24 F           0.3886    4.6233   27.9527 F       1  UNL1       -0.2042
     25 C           1.0502    2.2956   21.4782 C.3     1  UNL1        0.0473
     26 C           0.1773    1.3164   20.7507 C.3     1  UNL1        0.0038
     27 C           0.7634    0.4347   19.6881 C.3     1  UNL1        0.0005
     28 C           1.2871   -0.9246   20.0461 C.3     1  UNL1        0.0047
     29 C           2.7662   -1.1652   20.1115 C.3     1  UNL1        0.0261
     30 C           4.9485   -3.1682   22.7527 C.ar    1  UNL1        0.1342
     31 C           4.6787   -2.3794   23.9997 C.ar    1  UNL1        0.0365
     32 C           3.7714   -1.1859   23.9506 C.ar    1  UNL1        0.0028
     33 C           3.1339   -0.7811   22.6546 C.ar    1  UNL1       -0.0044
     34 C           3.4037   -1.5699   21.4076 C.ar    1  UNL1       -0.0232
     35 C           4.3109   -2.7634   21.4566 C.ar    1  UNL1        0.0082
     36 C           4.5807   -3.5522   20.2096 C.3     1  UNL1        0.0350
     37 C           5.8587   -3.3442   19.4523 C.3     1  UNL1        0.0465
     38 C           5.8453   -2.6053   18.1471 C.2     1  UNL1        0.0507
     39 O           4.5398   -2.2567   17.4960 O.co2   1  UNL1       -0.5492
     40 O           7.1375   -2.2151   17.4928 O.co2   1  UNL1       -0.5492
     41 O           5.8557   -4.3617   22.8018 O.3     1  UNL1       -0.4758
     42 C           7.3246   -4.1777   23.0435 C.3     1  UNL1        0.2058
     43 C           7.9040   -4.4662   24.3966 C.3     1  UNL1        0.0532
     44 C           7.1592   -5.3417   25.3603 C.3     1  UNL1        0.0455
     45 O           6.4194   -4.1369   27.5400 O.co2   1  UNL1       -0.5492
     46 C           7.3037   -5.1240   26.8373 C.2     1  UNL1        0.0505
     47 O           8.3325   -5.8933   27.6117 O.co2   1  UNL1       -0.5492
@<TRIPOS>UNITY_ATOM_ATTR
39 1
charge -1
45 1
charge -1
@<TRIPOS>BOND
     1    45    46   ar
     2    46    47   ar
     3    46    44    1
     4    44    43    1
     5    43    42    1
     6    42    41    1
     7    41    30    1
     8    30    31   ar
     9    31    32   ar
    10    32    33   ar
    11    33    34   ar
    12    34    29    1
    13    29    28    1
    14    28    27    1
    15    27    26    1
    16    26    25    1
    17    25     1    1
    18     1     2    1
    19     2     3    1
    20     3     4   ar
    21     4     5   ar
    22     5     9    1
    23     9    10   ar
    24    10    11   ar
    25    11    12   ar
    26    12    13   ar
    27    13    14   ar
    28    13    15    1
    29    15    16    1
    30    16    17    1
    31     5     6   ar
    32     6     7   ar
    33     7    18    1
    34    18    19   ar
    35    19    20   ar
    36    20    21   ar
    37    21    22   ar
    38    22    23   ar
    39    23    24    1
    40     7     8   ar
    41    34    35   ar
    42    35    36    1
    43    36    37    1
    44    37    38    1
    45    38    39   ar
    46    38    40   ar
    47    35    30   ar
    48     8     3   ar
    49    14     9   ar
    50    23    18   ar
    51    17    12    1
@<TRIPOS>MOLECULE
*****
 47 51 0 0 0
SMALL
GASTEIGER

@<TRIPOS>ATOM
      1 C          -0.0148    2.0031   21.0217 C.3     1  UNL1        0.2054
      2 O           0.1753    3.0720   22.0568 O.3     1  UNL1       -0.4755
      3 C          -0.5503    2.9848   23.3668 C.ar    1  UNL1        0.1386
      4 C           0.0563    2.2281   24.5111 C.ar    1  UNL1        0.0369
      5 C          -0.6692    2.1409   25.8211 C.ar    1  UNL1        0.0031
      6 C          -2.0013    2.8104   25.9868 C.ar    1  UNL1        0.0003
      7 C          -2.6078    3.5671   24.8425 C.ar    1  UNL1        0.0052
      8 C          -1.8823    3.6543   23.5325 C.ar    1  UNL1        0.0370
      9 C          -0.0626    1.3841   26.9655 C.ar    1  UNL1        0.0033
     10 C          -0.9474    0.7102   27.9718 C.ar    1  UNL1        0.0033
     11 C          -0.3409   -0.0466   29.1162 C.ar    1  UNL1        0.0402
     12 C           1.1505   -0.1293   29.2541 C.ar    1  UNL1        0.1764
     13 C           2.0353    0.5447   28.2477 C.ar    1  UNL1        0.1764
     14 C           1.4288    1.3014   27.1033 C.ar    1  UNL1        0.0402
     15 O           3.4607    0.2920   28.6407 O.3     1  UNL1       -0.4346
     16 C           3.4568   -0.5381   29.8900 C.3     1  UNL1        0.4294
     17 O           2.0290   -0.7985   30.2691 O.3     1  UNL1       -0.4346
     18 C          -3.9398    4.2366   25.0081 C.ar    1  UNL1        0.0276
     19 C          -4.0891    5.3837   25.9631 C.ar    1  UNL1        0.0022
     20 C          -5.4212    6.0531   26.1287 C.ar    1  UNL1        0.0001
     21 C          -6.6039    5.5755   25.3394 C.ar    1  UNL1        0.0023
     22 C          -6.4546    4.4284   24.3844 C.ar    1  UNL1        0.0296
     23 C          -5.1226    3.7589   24.2187 C.ar    1  UNL1        0.1401
     24 F          -4.9733    2.6119   23.2638 F       1  UNL1       -0.2042
     25 C           0.5623    0.6360   21.2406 C.3     1  UNL1        0.0473
     26 C           0.7656   -0.2875   20.0762 C.3     1  UNL1        0.0038
     27 C           1.9176   -0.0717   19.1400 C.3     1  UNL1        0.0005
     28 C           3.2237   -0.7675   19.3853 C.3     1  UNL1        0.0047
     29 C           3.2595   -2.0342   20.1879 C.3     1  UNL1        0.0261
     30 C           5.7797   -2.8615   23.1400 C.ar    1  UNL1        0.1342
     31 C           5.1767   -2.0650   24.2589 C.ar    1  UNL1        0.0365
     32 C           3.9347   -1.2583   24.0209 C.ar    1  UNL1        0.0028
     33 C           3.2956   -1.2480   22.6639 C.ar    1  UNL1       -0.0044
     34 C           3.8986   -2.0444   21.5450 C.ar    1  UNL1       -0.0232
     35 C           5.1405   -2.8511   21.7829 C.ar    1  UNL1        0.0082
     36 C           5.7435   -3.6476   20.6639 C.3     1  UNL1        0.0350
     37 C           6.9545   -3.1322   19.9441 C.3     1  UNL1        0.0465
     38 C           6.8392   -1.9409   19.0401 C.2     1  UNL1        0.0507
     39 O           6.6827   -0.5684   19.6245 O.co2   1  UNL1       -0.5492
     40 O           6.8805   -2.1221   17.5516 O.co2   1  UNL1       -0.5492
     41 O           7.0217   -3.6682   23.3780 O.3     1  UNL1       -0.4758
     42 C           6.9472   -4.9470   24.1583 C.3     1  UNL1        0.2058
     43 C           7.6230   -5.0513   25.4934 C.3     1  UNL1        0.0532
     44 C           7.5011   -3.9327   26.4852 C.3     1  UNL1        0.0455
     45 O           5.6859   -2.7138   27.8885 O.co2   1  UNL1       -0.5492
     46 C           6.4237   -3.9691   27.5283 C.2     1  UNL1        0.0505
     47 O           6.0842   -5.2608   28.2110 O.co2   1  UNL1       -0.5492
@<TRIPOS>UNITY_ATOM_ATTR
39 1
charge -1
45 1
charge -1
@<TRIPOS>BOND
     1    45    46   ar
     2    46    47   ar
     3    46    44    1
     4    44    43    1
     5    43    42    1
     6    42    41    1
     7    41    30    1
     8    30    31   ar
     9    31    32   ar
    10    32    33   ar
    11    33    34   ar
    12    34    29    1
    13    29    28    1
    14    28    27    1
    15    27    26    1
    16    26    25    1
    17    25     1    1
    18     1     2    1
    19     2     3    1
    20     3     4   ar
    21     4     5   ar
    22     5     9    1
    23     9    10   ar
    24    10    11   ar
    25    11    12   ar
    26    12    13   ar
    27    13    14   ar
    28    13    15    1
    29    15    16    1
    30    16    17    1
    31     5     6   ar
    32     6     7   ar
    33     7    18    1
    34    18    19   ar
    35    19    20   ar
    36    20    21   ar
    37    21    22   ar
    38    22    23   ar
    39    23    24    1
    40     7     8   ar
    41    34    35   ar
    42    35    36    1
    43    36    37    1
    44    37    38    1
    45    38    39   ar
    46    38    40   ar
    47    35    30   ar
    48     8     3   ar
    49    14     9   ar
    50    23    18   ar
    51    17    12    1
@<TRIPOS>MOLECULE
*****
 47 51 0 0 0
SMALL
GASTEIGER

@<TRIPOS>ATOM
      1 C           1.9556    1.1832   22.1522 C.3     1  UNL1        0.2054
      2 O           1.1741    2.4619   22.2152 O.3     1  UNL1       -0.4755
      3 C           0.1168    2.6438   23.2636 C.ar    1  UNL1        0.1386
      4 C          -1.2455    3.1384   22.8769 C.ar    1  UNL1        0.0369
      5 C          -2.3028    3.3203   23.9253 C.ar    1  UNL1        0.0031
      6 C          -1.9978    3.0077   25.3603 C.ar    1  UNL1        0.0003
      7 C          -0.6355    2.5131   25.7470 C.ar    1  UNL1        0.0052
      8 C           0.4218    2.3312   24.6986 C.ar    1  UNL1        0.0370
      9 C          -3.6652    3.8149   23.5386 C.ar    1  UNL1        0.0033
     10 C          -4.7547    3.8922   24.5666 C.ar    1  UNL1        0.0033
     11 C          -6.1170    4.3868   24.1800 C.ar    1  UNL1        0.0402
     12 C          -6.3898    4.8040   22.7652 C.ar    1  UNL1        0.1764
     13 C          -5.3003    4.7266   21.7371 C.ar    1  UNL1        0.1764
     14 C          -3.9380    4.2321   22.1238 C.ar    1  UNL1        0.0402
     15 O          -5.8614    5.2034   20.4303 O.3     1  UNL1       -0.4346
     16 C          -7.2977    5.5754   20.6507 C.3     1  UNL1        0.4294
     17 O          -7.6243    5.3285   22.0938 O.3     1  UNL1       -0.4346
     18 C          -0.3305    2.2005   27.1820 C.ar    1  UNL1        0.0276
     19 C          -0.8294    0.9253   27.7942 C.ar    1  UNL1        0.0022
     20 C          -0.5243    0.6127   29.2292 C.ar    1  UNL1        0.0001
     21 C           0.2796    1.5754   30.0519 C.ar    1  UNL1        0.0023
     22 C           0.7785    2.8506   29.4397 C.ar    1  UNL1        0.0296
     23 C           0.4735    3.1633   28.0047 C.ar    1  UNL1        0.1401
     24 F           0.9724    4.4385   27.3925 F       1  UNL1       -0.2042
     25 C           3.4547    1.2212   22.1202 C.3     1  UNL1        0.0473
     26 C           4.2445    0.0118   22.5248 C.3     1  UNL1        0.0038
     27 C           3.5761   -1.1056   23.2696 C.3     1  UNL1        0.0005
     28 C           4.3684   -2.3100   23.6840 C.3     1  UNL1        0.0047
     29 C           4.7583   -3.3385   22.6641 C.3     1  UNL1        0.0261
     30 C           6.3196   -2.3489   19.1522 C.ar    1  UNL1        0.1342
     31 C           7.7812   -2.3248   19.4885 C.ar    1  UNL1        0.0365
     32 C           8.2352   -2.6385   20.8833 C.ar    1  UNL1        0.0028
     33 C           7.2276   -2.9764   21.9418 C.ar    1  UNL1       -0.0044
     34 C           5.7660   -3.0005   21.6056 C.ar    1  UNL1       -0.0232
     35 C           5.3120   -2.6868   20.2109 C.ar    1  UNL1        0.0082
     36 C           3.8503   -2.7109   19.8746 C.3     1  UNL1        0.0350
     37 C           3.2559   -3.9108   19.1986 C.3     1  UNL1        0.0465
     38 C           3.7709   -5.2831   19.5172 C.2     1  UNL1        0.0507
     39 O           3.1194   -6.0970   20.5956 O.co2   1  UNL1       -0.5492
     40 O           4.9376   -5.8414   18.7574 O.co2   1  UNL1       -0.5492
     41 O           5.8656   -2.0351   17.7574 O.3     1  UNL1       -0.4758
     42 C           5.7662   -0.6087   17.3041 C.3     1  UNL1        0.2058
     43 C           4.7538    0.3070   17.9258 C.3     1  UNL1        0.0532
     44 C           3.2891    0.0489   17.7306 C.3     1  UNL1        0.0455
     45 O           2.7149    2.3233   18.8474 O.co2   1  UNL1       -0.5492
     46 C           2.2774    0.9934   18.3087 C.2     1  UNL1        0.0505
     47 O           0.8283    0.6081   18.3481 O.co2   1  UNL1       -0.5492
@<TRIPOS>UNITY_ATOM_ATTR
39 1
charge -1
45 1
charge -1
@<TRIPOS>BOND
     1    45    46   ar
     2    46    47   ar
     3    46    44    1
     4    44    43    1
     5    43    42    1
     6    42    41    1
     7    41    30    1
     8    30    31   ar
     9    31    32   ar
    10    32    33   ar
    11    33    34   ar
    12    34    29    1
    13    29    28    1
    14    28    27    1
    15    27    26    1
    16    26    25    1
    17    25     1    1
    18     1     2    1
    19     2     3    1
    20     3     4   ar
    21     4     5   ar
    22     5     9    1
    23     9    10   ar
    24    10    11   ar
    25    11    12   ar
    26    12    13   ar
    27    13    14   ar
    28    13    15    1
    29    15    16    1
    30    16    17    1
    31     5     6   ar
    32     6     7   ar
    33     7    18    1
    34    18    19   ar
    35    19    20   ar
    36    20    21   ar
    37    21    22   ar
    38    22    23   ar
    39    23    24    1
    40     7     8   ar
    41    34    35   ar
    42    35    36    1
    43    36    37    1
    44    37    38    1
    45    38    39   ar
    46    38    40   ar
    47    35    30   ar
    48     8     3   ar
    49    14     9   ar
    50    23    18   ar
    51    17    12    1
@<TRIPOS>MOLECULE
*****
 47 51 0 0 0
SMALL
GASTEIGER

@<TRIPOS>ATOM
      1 C          -0.2631    1.1290   27.8140 C.3     1  UNL1        0.2054
      2 O           0.2372   -0.1553   28.4058 O.3     1  UNL1       -0.4755
      3 C           1.6770   -0.2861   28.8056 C.ar    1  UNL1        0.1386
      4 C           2.0538   -0.3007   30.2574 C.ar    1  UNL1        0.0369
      5 C           3.4936   -0.4314   30.6572 C.ar    1  UNL1        0.0031
      6 C           4.5566   -0.5477   29.6053 C.ar    1  UNL1        0.0003
      7 C           4.1798   -0.5332   28.1535 C.ar    1  UNL1        0.0052
      8 C           2.7400   -0.4024   27.7536 C.ar    1  UNL1        0.0370
      9 C           3.8705   -0.4460   32.1091 C.ar    1  UNL1        0.0033
     10 C           4.6214   -1.6134   32.6774 C.ar    1  UNL1        0.0033
     11 C           4.9983   -1.6279   34.1292 C.ar    1  UNL1        0.0402
     12 C           4.6241   -0.4750   35.0127 C.ar    1  UNL1        0.1764
     13 C           3.8731    0.6926   34.4445 C.ar    1  UNL1        0.1764
     14 C           3.4963    0.7071   32.9927 C.ar    1  UNL1        0.0402
     15 O           3.6425    1.6785   35.5512 O.3     1  UNL1       -0.4346
     16 C           4.2510    1.1203   36.8034 C.3     1  UNL1        0.4294
     17 O           4.8577   -0.2106   36.4707 O.3     1  UNL1       -0.4346
     18 C           5.2427   -0.6495   27.1015 C.ar    1  UNL1        0.0276
     19 C           5.5390    0.5143   26.2028 C.ar    1  UNL1        0.0022
     20 C           6.6020    0.3980   25.1508 C.ar    1  UNL1        0.0001
     21 C           7.3686   -0.8822   24.9977 C.ar    1  UNL1        0.0023
     22 C           7.0724   -2.0460   25.8964 C.ar    1  UNL1        0.0296
     23 C           6.0094   -1.9297   26.9484 C.ar    1  UNL1        0.1401
     24 F           5.7132   -3.0935   27.8471 F       1  UNL1       -0.2042
     25 C          -0.4438    1.2508   26.3300 C.3     1  UNL1        0.0473
     26 C           0.6762    1.7708   25.4783 C.3     1  UNL1        0.0038
     27 C           1.0890    1.0242   24.2445 C.3     1  UNL1        0.0005
     28 C           2.4132    0.3210   24.2013 C.3     1  UNL1        0.0047
     29 C           3.1144    0.1221   22.8903 C.3     1  UNL1        0.0261
     30 C           4.0344   -3.0932   20.7536 C.ar    1  UNL1        0.1342
     31 C           4.7183   -3.9356   21.7893 C.ar    1  UNL1        0.0365
     32 C           4.8676   -3.4255   23.1919 C.ar    1  UNL1        0.0028
     33 C           4.3330   -2.0729   23.5590 C.ar    1  UNL1       -0.0044
     34 C           3.6491   -1.2305   22.5233 C.ar    1  UNL1       -0.0232
     35 C           3.4998   -1.7406   21.1207 C.ar    1  UNL1        0.0082
     36 C           2.8159   -0.8982   20.0850 C.3     1  UNL1        0.0350
     37 C           1.3225   -0.7569   20.0997 C.3     1  UNL1        0.0465
     38 C           0.6936    0.5832   19.8583 C.2     1  UNL1        0.0507
     39 O          -0.5989    0.9374   20.5321 O.co2   1  UNL1       -0.5492
     40 O           1.3570    1.5692   18.9430 O.co2   1  UNL1       -0.5492
     41 O           3.8851   -3.6034   19.3510 O.3     1  UNL1       -0.4758
     42 C           5.0696   -3.6256   18.4309 C.3     1  UNL1        0.2058
     43 C           5.6793   -2.3377   17.9621 C.3     1  UNL1        0.0532
     44 C           6.9580   -1.8468   18.5735 C.3     1  UNL1        0.0455
     45 O           7.5085   -1.9248   21.1114 O.co2   1  UNL1       -0.5492
     46 C           6.9423   -1.1997   19.9267 C.2     1  UNL1        0.0505
     47 O           6.3605    0.1726   20.0950 O.co2   1  UNL1       -0.5492
@<TRIPOS>UNITY_ATOM_ATTR
39 1
charge -1
45 1
charge -1
@<TRIPOS>BOND
     1    45    46   ar
     2    46    47   ar
     3    46    44    1
     4    44    43    1
     5    43    42    1
     6    42    41    1
     7    41    30    1
     8    30    31   ar
     9    31    32   ar
    10    32    33   ar
    11    33    34   ar
    12    34    29    1
    13    29    28    1
    14    28    27    1
    15    27    26    1
    16    26    25    1
    17    25     1    1
    18     1     2    1
    19     2     3    1
    20     3     4   ar
    21     4     5   ar
    22     5     9    1
    23     9    10   ar
    24    10    11   ar
    25    11    12   ar
    26    12    13   ar
    27    13    14   ar
    28    13    15    1
    29    15    16    1
    30    16    17    1
    31     5     6   ar
    32     6     7   ar
    33     7    18    1
    34    18    19   ar
    35    19    20   ar
    36    20    21   ar
    37    21    22   ar
    38    22    23   ar
    39    23    24    1
    40     7     8   ar
    41    34    35   ar
    42    35    36    1
    43    36    37    1
    44    37    38    1
    45    38    39   ar
    46    38    40   ar
    47    35    30   ar
    48     8     3   ar
    49    14     9   ar
    50    23    18   ar
    51    17    12    1
@<TRIPOS>MOLECULE
*****
 47 51 0 0 0
SMALL
GASTEIGER

@<TRIPOS>ATOM
      1 C          -0.6401    1.7844   25.8662 C.3     1  UNL1        0.2054
      2 O           0.6359    2.1777   25.1826 O.3     1  UNL1       -0.4755
      3 C           1.7471    1.1806   25.0373 C.ar    1  UNL1        0.1386
      4 C           1.9324    0.4477   23.7417 C.ar    1  UNL1        0.0369
      5 C           3.0435   -0.5494   23.5964 C.ar    1  UNL1        0.0031
      6 C           3.9694   -0.8136   24.7466 C.ar    1  UNL1        0.0003
      7 C           3.7841   -0.0808   26.0422 C.ar    1  UNL1        0.0052
      8 C           2.6729    0.9163   26.1875 C.ar    1  UNL1        0.0370
      9 C           3.2288   -1.2824   22.3008 C.ar    1  UNL1        0.0033
     10 C           2.5260   -0.8080   21.0636 C.ar    1  UNL1        0.0033
     11 C           2.7113   -1.5409   19.7680 C.ar    1  UNL1        0.0402
     12 C           3.5995   -2.7482   19.7097 C.ar    1  UNL1        0.1764
     13 C           4.3024   -3.2226   20.9470 C.ar    1  UNL1        0.1764
     14 C           4.1171   -2.4898   22.2425 C.ar    1  UNL1        0.0402
     15 O           5.1091   -4.4346   20.5859 O.3     1  UNL1       -0.4346
     16 C           4.9048   -4.7092   19.1255 C.3     1  UNL1        0.4294
     17 O           3.9718   -3.6670   18.5840 O.3     1  UNL1       -0.4346
     18 C           4.7099   -0.3450   27.1924 C.ar    1  UNL1        0.0276
     19 C           4.8721   -1.7399   27.7195 C.ar    1  UNL1        0.0022
     20 C           5.7980   -2.0040   28.8698 C.ar    1  UNL1        0.0001
     21 C           6.5616   -0.8733   29.4929 C.ar    1  UNL1        0.0023
     22 C           6.3993    0.5217   28.9658 C.ar    1  UNL1        0.0296
     23 C           5.4735    0.7859   27.8156 C.ar    1  UNL1        0.1401
     24 F           5.3113    2.1808   27.2885 F       1  UNL1       -0.2042
     25 C          -0.9766    2.3548   27.2120 C.3     1  UNL1        0.0473
     26 C          -0.2192    1.9073   28.4269 C.3     1  UNL1        0.0038
     27 C          -0.2203    0.4598   28.8204 C.3     1  UNL1        0.0005
     28 C           1.0550   -0.2007   29.2532 C.3     1  UNL1        0.0047
     29 C           2.2145    0.6342   29.7098 C.3     1  UNL1        0.0261
     30 C           3.3669    1.3088   33.4471 C.ar    1  UNL1        0.1342
     31 C           3.9822   -0.0136   33.7971 C.ar    1  UNL1        0.0365
     32 C           4.0084   -1.1201   32.7846 C.ar    1  UNL1        0.0028
     33 C           3.4192   -0.9042   31.4222 C.ar    1  UNL1       -0.0044
     34 C           2.8038    0.4182   31.0723 C.ar    1  UNL1       -0.0232
     35 C           2.7776    1.5247   32.0846 C.ar    1  UNL1        0.0082
     36 C           2.1623    2.8471   31.7346 C.3     1  UNL1        0.0350
     37 C           0.7232    3.1151   32.0625 C.3     1  UNL1        0.0465
     38 C           0.3165    4.4467   32.6203 C.2     1  UNL1        0.0507
     39 O          -0.3697    5.4501   31.7414 O.co2   1  UNL1       -0.5492
     40 O           0.5958    4.7751   34.0570 O.co2   1  UNL1       -0.5492
     41 O           3.3408    2.4153   34.4595 O.3     1  UNL1       -0.4758
     42 C           3.1890    2.0948   35.9170 C.3     1  UNL1        0.2058
     43 C           2.8250    3.1777   36.8890 C.3     1  UNL1        0.0532
     44 C           1.8690    2.8904   38.0086 C.3     1  UNL1        0.0455
     45 O           3.2662    1.1247   39.3049 O.co2   1  UNL1       -0.5492
     46 C           1.9521    1.5894   38.7506 C.2     1  UNL1        0.0505
     47 O           0.7211    0.7531   38.9383 O.co2   1  UNL1       -0.5492
@<TRIPOS>UNITY_ATOM_ATTR
39 1
charge -1
45 1
charge -1
@<TRIPOS>BOND
     1    45    46   ar
     2    46    47   ar
     3    46    44    1
     4    44    43    1
     5    43    42    1
     6    42    41    1
     7    41    30    1
     8    30    31   ar
     9    31    32   ar
    10    32    33   ar
    11    33    34   ar
    12    34    29    1
    13    29    28    1
    14    28    27    1
    15    27    26    1
    16    26    25    1
    17    25     1    1
    18     1     2    1
    19     2     3    1
    20     3     4   ar
    21     4     5   ar
    22     5     9    1
    23     9    10   ar
    24    10    11   ar
    25    11    12   ar
    26    12    13   ar
    27    13    14   ar
    28    13    15    1
    29    15    16    1
    30    16    17    1
    31     5     6   ar
    32     6     7   ar
    33     7    18    1
    34    18    19   ar
    35    19    20   ar
    36    20    21   ar
    37    21    22   ar
    38    22    23   ar
    39    23    24    1
    40     7     8   ar
    41    34    35   ar
    42    35    36    1
    43    36    37    1
    44    37    38    1
    45    38    39   ar
    46    38    40   ar
    47    35    30   ar
    48     8     3   ar
    49    14     9   ar
    50    23    18   ar
    51    17    12    1
@<TRIPOS>MOLECULE
*****
 47 51 0 0 0
SMALL
GASTEIGER

@<TRIPOS>ATOM
      1 C           5.7326   -2.3680   27.2404 C.3     1  UNL1        0.2054
      2 O           4.9404   -1.0987   27.3457 O.3     1  UNL1       -0.4755
      3 C           4.0604   -0.6675   26.2099 C.ar    1  UNL1        0.1386
      4 C           4.1789   -1.3377   24.8732 C.ar    1  UNL1        0.0369
      5 C           3.2990   -0.9065   23.7375 C.ar    1  UNL1        0.0031
      6 C           2.3006    0.1948   23.9385 C.ar    1  UNL1        0.0003
      7 C           2.1821    0.8650   25.2752 C.ar    1  UNL1        0.0052
      8 C           3.0620    0.4338   26.4109 C.ar    1  UNL1        0.0370
      9 C           3.4174   -1.5767   22.4007 C.ar    1  UNL1        0.0033
     10 C           2.6657   -1.0354   21.2211 C.ar    1  UNL1        0.0033
     11 C           2.7841   -1.7055   19.8844 C.ar    1  UNL1        0.0402
     12 C           3.6543   -2.9171   19.7273 C.ar    1  UNL1        0.1764
     13 C           4.4062   -3.4585   20.9070 C.ar    1  UNL1        0.1764
     14 C           4.2877   -2.7884   22.2437 C.ar    1  UNL1        0.0402
     15 O           5.1814   -4.6591   20.4513 O.3     1  UNL1       -0.4346
     16 C           4.9087   -4.8596   18.9900 C.3     1  UNL1        0.4294
     17 O           3.9649   -3.7830   18.5425 O.3     1  UNL1       -0.4346
     18 C           1.1838    1.9663   25.4762 C.ar    1  UNL1        0.0276
     19 C           1.3636    3.2791   24.7732 C.ar    1  UNL1        0.0022
     20 C           0.3652    4.3804   24.9743 C.ar    1  UNL1        0.0001
     21 C          -0.8130    4.1688   25.8782 C.ar    1  UNL1        0.0023
     22 C          -0.9928    2.8560   26.5812 C.ar    1  UNL1        0.0296
     23 C           0.0056    1.7547   26.3802 C.ar    1  UNL1        0.1401
     24 F          -0.1742    0.4418   27.0832 F       1  UNL1       -0.2042
     25 C           7.1962   -2.3139   26.9164 C.3     1  UNL1        0.0473
     26 C           7.7177   -1.2696   25.9743 C.3     1  UNL1        0.0038
     27 C           8.3851   -1.6797   24.6950 C.3     1  UNL1        0.0005
     28 C           7.5901   -1.7558   23.4253 C.3     1  UNL1        0.0047
     29 C           7.6799   -0.6492   22.4167 C.3     1  UNL1        0.0261
     30 C           4.7789    1.7284   21.1200 C.ar    1  UNL1        0.1342
     31 C           4.5461    2.5791   22.3333 C.ar    1  UNL1        0.0365
     32 C           5.3578    2.3537   23.5744 C.ar    1  UNL1        0.0028
     33 C           6.4024    1.2777   23.6022 C.ar    1  UNL1       -0.0044
     34 C           6.6353    0.4270   22.3889 C.ar    1  UNL1       -0.0232
     35 C           5.8236    0.6523   21.1479 C.ar    1  UNL1        0.0082
     36 C           6.0565   -0.1984   19.9346 C.3     1  UNL1        0.0350
     37 C           7.4543   -0.5665   19.5336 C.3     1  UNL1        0.0465
     38 C           7.6918   -1.7473   18.6397 C.2     1  UNL1        0.0507
     39 O           8.8999   -2.6124   18.8449 O.co2   1  UNL1       -0.5492
     40 O           6.7211   -2.0633   17.5406 O.co2   1  UNL1       -0.5492
     41 O           3.9672    1.9538   19.8789 O.3     1  UNL1       -0.4758
     42 C           3.1885    3.2251   19.7127 C.3     1  UNL1        0.2058
     43 C           1.6997    3.2220   19.8952 C.3     1  UNL1        0.0532
     44 C           1.0818    2.4242   21.0049 C.3     1  UNL1        0.0455
     45 O          -1.5118    2.4545   20.8544 O.co2   1  UNL1       -0.5492
     46 C          -0.2149    1.7046   20.7794 C.2     1  UNL1        0.0505
     47 O          -0.2146    0.2350   20.4789 O.co2   1  UNL1       -0.5492
@<TRIPOS>UNITY_ATOM_ATTR
39 1
charge -1
45 1
charge -1
@<TRIPOS>BOND
     1    45    46   ar
     2    46    47   ar
     3    46    44    1
     4    44    43    1
     5    43    42    1
     6    42    41    1
     7    41    30    1
     8    30    31   ar
     9    31    32   ar
    10    32    33   ar
    11    33    34   ar
    12    34    29    1
    13    29    28    1
    14    28    27    1
    15    27    26    1
    16    26    25    1
    17    25     1    1
    18     1     2    1
    19     2     3    1
    20     3     4   ar
    21     4     5   ar
    22     5     9    1
    23     9    10   ar
    24    10    11   ar
    25    11    12   ar
    26    12    13   ar
    27    13    14   ar
    28    13    15    1
    29    15    16    1
    30    16    17    1
    31     5     6   ar
    32     6     7   ar
    33     7    18    1
    34    18    19   ar
    35    19    20   ar
    36    20    21   ar
    37    21    22   ar
    38    22    23   ar
    39    23    24    1
    40     7     8   ar
    41    34    35   ar
    42    35    36    1
    43    36    37    1
    44    37    38    1
    45    38    39   ar
    46    38    40   ar
    47    35    30   ar
    48     8     3   ar
    49    14     9   ar
    50    23    18   ar
    51    17    12    1
@<TRIPOS>MOLECULE
*****
 47 51 0 0 0
SMALL
GASTEIGER

@<TRIPOS>ATOM
      1 C          -0.1803    2.7015   20.5394 C.3     1  UNL1        0.2054
      2 O           0.4692    3.0147   21.8548 O.3     1  UNL1       -0.4755
      3 C          -0.3331    2.9533   23.1207 C.ar    1  UNL1        0.1386
      4 C           0.2115    2.2350   24.3196 C.ar    1  UNL1        0.0369
      5 C          -0.5908    2.1736   25.5856 C.ar    1  UNL1        0.0031
      6 C          -1.9376    2.8305   25.6527 C.ar    1  UNL1        0.0003
      7 C          -2.4822    3.5489   24.4538 C.ar    1  UNL1        0.0052
      8 C          -1.6800    3.6103   23.1878 C.ar    1  UNL1        0.0370
      9 C          -0.0461    1.4551   26.7846 C.ar    1  UNL1        0.0033
     10 C          -0.9773    0.9734   27.8572 C.ar    1  UNL1        0.0033
     11 C          -0.4328    0.2551   29.0561 C.ar    1  UNL1        0.0402
     12 C           1.0431    0.0184   29.1823 C.ar    1  UNL1        0.1764
     13 C           1.9743    0.5002   28.1096 C.ar    1  UNL1        0.1764
     14 C           1.4298    1.2185   26.9107 C.ar    1  UNL1        0.0402
     15 O           3.3715    0.1246   28.5057 O.3     1  UNL1       -0.4346
     16 C           3.3037   -0.5892   29.8232 C.3     1  UNL1        0.4294
     17 O           1.8647   -0.6548   30.2414 O.3     1  UNL1       -0.4346
     18 C          -3.8290    4.2059   24.5209 C.ar    1  UNL1        0.0276
     19 C          -4.9909    3.6119   23.7812 C.ar    1  UNL1        0.0022
     20 C          -6.3377    4.2689   23.8483 C.ar    1  UNL1        0.0001
     21 C          -6.5225    5.5199   24.6551 C.ar    1  UNL1        0.0023
     22 C          -5.3606    6.1138   25.3948 C.ar    1  UNL1        0.0296
     23 C          -4.0138    5.4569   25.3277 C.ar    1  UNL1        0.1401
     24 F          -2.8519    6.0509   26.0674 F       1  UNL1       -0.2042
     25 C           0.0855    1.3880   19.8656 C.3     1  UNL1        0.0473
     26 C           0.8843    1.3441   18.5968 C.3     1  UNL1        0.0038
     27 C           2.3524    1.6509   18.6237 C.3     1  UNL1        0.0005
     28 C           3.3439    0.5515   18.8647 C.3     1  UNL1        0.0047
     29 C           2.9003   -0.7324   19.5010 C.3     1  UNL1        0.0261
     30 C           4.2789   -2.3659   22.8449 C.ar    1  UNL1        0.1342
     31 C           3.6709   -1.4601   23.8744 C.ar    1  UNL1        0.0365
     32 C           2.8061   -0.3118   23.4461 C.ar    1  UNL1        0.0028
     33 C           2.5492   -0.0692   21.9884 C.ar    1  UNL1       -0.0044
     34 C           3.1572   -0.9749   20.9589 C.ar    1  UNL1       -0.0232
     35 C           4.0219   -2.1232   21.3870 C.ar    1  UNL1        0.0082
     36 C           4.6299   -3.0290   20.3575 C.3     1  UNL1        0.0350
     37 C           3.7528   -3.9291   19.5385 C.3     1  UNL1        0.0465
     38 C           3.8942   -5.4181   19.6497 C.2     1  UNL1        0.0507
     39 O           4.9743   -6.1279   18.8885 O.co2   1  UNL1       -0.5492
     40 O           2.9554   -6.1976   20.5223 O.co2   1  UNL1       -0.5492
     41 O           5.1437   -3.5142   23.2732 O.3     1  UNL1       -0.4758
     42 C           5.9939   -3.3948   24.5031 C.3     1  UNL1        0.2058
     43 C           7.3565   -4.0211   24.5366 C.3     1  UNL1        0.0532
     44 C           7.8121   -4.8871   23.3997 C.3     1  UNL1        0.0455
     45 O           8.4928   -2.9298   21.8326 O.co2   1  UNL1       -0.5492
     46 C           7.9369   -4.3103   22.0207 C.2     1  UNL1        0.0505
     47 O           7.5059   -5.1139   20.8298 O.co2   1  UNL1       -0.5492
@<TRIPOS>UNITY_ATOM_ATTR
39 1
charge -1
45 1
charge -1
@<TRIPOS>BOND
     1    45    46   ar
     2    46    47   ar
     3    46    44    1
     4    44    43    1
     5    43    42    1
     6    42    41    1
     7    41    30    1
     8    30    31   ar
     9    31    32   ar
    10    32    33   ar
    11    33    34   ar
    12    34    29    1
    13    29    28    1
    14    28    27    1
    15    27    26    1
    16    26    25    1
    17    25     1    1
    18     1     2    1
    19     2     3    1
    20     3     4   ar
    21     4     5   ar
    22     5     9    1
    23     9    10   ar
    24    10    11   ar
    25    11    12   ar
    26    12    13   ar
    27    13    14   ar
    28    13    15    1
    29    15    16    1
    30    16    17    1
    31     5     6   ar
    32     6     7   ar
    33     7    18    1
    34    18    19   ar
    35    19    20   ar
    36    20    21   ar
    37    21    22   ar
    38    22    23   ar
    39    23    24    1
    40     7     8   ar
    41    34    35   ar
    42    35    36    1
    43    36    37    1
    44    37    38    1
    45    38    39   ar
    46    38    40   ar
    47    35    30   ar
    48     8     3   ar
    49    14     9   ar
    50    23    18   ar
    51    17    12    1
@<TRIPOS>MOLECULE
*****
 47 51 0 0 0
SMALL
GASTEIGER

@<TRIPOS>ATOM
      1 C           6.5667    2.3520   24.1362 C.3     1  UNL1        0.2054
      2 O           6.8412    1.8009   25.5040 O.3     1  UNL1       -0.4755
      3 C           5.9705    0.7152   26.0638 C.ar    1  UNL1        0.1386
      4 C           6.4857   -0.6910   26.1477 C.ar    1  UNL1        0.0369
      5 C           5.6151   -1.7766   26.7075 C.ar    1  UNL1        0.0031
      6 C           4.2291   -1.4560   27.1832 C.ar    1  UNL1        0.0003
      7 C           3.7138   -0.0498   27.0993 C.ar    1  UNL1        0.0052
      8 C           4.5845    1.0358   26.5395 C.ar    1  UNL1        0.0370
      9 C           6.1303   -3.1829   26.7914 C.ar    1  UNL1        0.0033
     10 C           6.1650   -3.8912   28.1131 C.ar    1  UNL1        0.0033
     11 C           6.6803   -5.2974   28.1971 C.ar    1  UNL1        0.0402
     12 C           7.1609   -5.9953   26.9593 C.ar    1  UNL1        0.1764
     13 C           7.1262   -5.2869   25.6376 C.ar    1  UNL1        0.1764
     14 C           6.6110   -3.8807   25.5536 C.ar    1  UNL1        0.0402
     15 O           7.6623   -6.2233   24.5956 O.3     1  UNL1       -0.4346
     16 C           8.0283   -7.5104   25.2733 C.3     1  UNL1        0.4294
     17 O           7.7184   -7.3695   26.7342 O.3     1  UNL1       -0.4346
     18 C           2.3279    0.2708   27.5751 C.ar    1  UNL1        0.0276
     19 C           1.3818    1.0165   26.6813 C.ar    1  UNL1        0.0022
     20 C          -0.0042    1.3370   27.1571 C.ar    1  UNL1        0.0001
     21 C          -0.4440    0.9119   28.5267 C.ar    1  UNL1        0.0023
     22 C           0.5021    0.1662   29.4205 C.ar    1  UNL1        0.0296
     23 C           1.8881   -0.1544   28.9447 C.ar    1  UNL1        0.1401
     24 F           2.8341   -0.9001   29.8385 F       1  UNL1       -0.2042
     25 C           6.6060    1.4466   22.9410 C.3     1  UNL1        0.0473
     26 C           7.8027    0.5752   22.6992 C.3     1  UNL1        0.0038
     27 C           7.6927   -0.9120   22.8614 C.3     1  UNL1        0.0005
     28 C           6.9441   -1.7237   21.8461 C.3     1  UNL1        0.0047
     29 C           5.6669   -2.4108   22.2292 C.3     1  UNL1        0.0261
     30 C           2.2318   -0.7896   21.0795 C.ar    1  UNL1        0.1342
     31 C           1.8108   -0.0939   22.3399 C.ar    1  UNL1        0.0365
     32 C           2.6752   -0.1705   23.5634 C.ar    1  UNL1        0.0028
     33 C           3.9605   -0.9428   23.5266 C.ar    1  UNL1       -0.0044
     34 C           4.3815   -1.6385   22.2661 C.ar    1  UNL1       -0.0232
     35 C           3.5172   -1.5620   21.0426 C.ar    1  UNL1        0.0082
     36 C           3.9382   -2.2577   19.7822 C.3     1  UNL1        0.0350
     37 C           3.3399   -3.5854   19.4226 C.3     1  UNL1        0.0465
     38 C           4.0456   -4.8535   19.8018 C.2     1  UNL1        0.0507
     39 O           3.2539   -6.0522   20.2334 O.co2   1  UNL1       -0.5492
     40 O           5.5431   -4.9229   19.7495 O.co2   1  UNL1       -0.5492
     41 O           1.3674   -0.7131   19.8560 O.3     1  UNL1       -0.4758
     42 C           1.4035    0.5094   18.9875 C.3     1  UNL1        0.2058
     43 C           2.4886    0.6710   17.9646 C.3     1  UNL1        0.0532
     44 C           3.8520    1.1348   18.3843 C.3     1  UNL1        0.0455
     45 O           5.0379   -0.5975   16.8537 O.co2   1  UNL1       -0.5492
     46 C           5.0634    0.6928   17.6181 C.2     1  UNL1        0.0505
     47 O           6.3004    1.5413   17.6163 O.co2   1  UNL1       -0.5492
@<TRIPOS>UNITY_ATOM_ATTR
39 1
charge -1
45 1
charge -1
@<TRIPOS>BOND
     1    45    46   ar
     2    46    47   ar
     3    46    44    1
     4    44    43    1
     5    43    42    1
     6    42    41    1
     7    41    30    1
     8    30    31   ar
     9    31    32   ar
    10    32    33   ar
    11    33    34   ar
    12    34    29    1
    13    29    28    1
    14    28    27    1
    15    27    26    1
    16    26    25    1
    17    25     1    1
    18     1     2    1
    19     2     3    1
    20     3     4   ar
    21     4     5   ar
    22     5     9    1
    23     9    10   ar
    24    10    11   ar
    25    11    12   ar
    26    12    13   ar
    27    13    14   ar
    28    13    15    1
    29    15    16    1
    30    16    17    1
    31     5     6   ar
    32     6     7   ar
    33     7    18    1
    34    18    19   ar
    35    19    20   ar
    36    20    21   ar
    37    21    22   ar
    38    22    23   ar
    39    23    24    1
    40     7     8   ar
    41    34    35   ar
    42    35    36    1
    43    36    37    1
    44    37    38    1
    45    38    39   ar
    46    38    40   ar
    47    35    30   ar
    48     8     3   ar
    49    14     9   ar
    50    23    18   ar
    51    17    12    1
@<TRIPOS>MOLECULE
*****
 47 51 0 0 0
SMALL
GASTEIGER

@<TRIPOS>ATOM
      1 C           4.6865   -1.5027   27.2135 C.3     1  UNL1        0.2054
      2 O           3.9373   -0.2667   26.8124 O.3     1  UNL1       -0.4755
      3 C           3.2850   -0.1896   25.4637 C.ar    1  UNL1        0.1386
      4 C           2.1824    0.7976   25.2193 C.ar    1  UNL1        0.0369
      5 C           1.5302    0.8747   23.8708 C.ar    1  UNL1        0.0031
      6 C           1.9804   -0.0354   22.7667 C.ar    1  UNL1        0.0003
      7 C           3.0829   -1.0226   23.0111 C.ar    1  UNL1        0.0052
      8 C           3.7352   -1.0998   24.3597 C.ar    1  UNL1        0.0370
      9 C           0.4275    1.8620   23.6263 C.ar    1  UNL1        0.0033
     10 C          -0.4448    2.3085   24.7618 C.ar    1  UNL1        0.0033
     11 C          -1.5473    3.2957   24.5174 C.ar    1  UNL1        0.0402
     12 C          -1.7775    3.8364   23.1373 C.ar    1  UNL1        0.1764
     13 C          -0.9052    3.3899   22.0017 C.ar    1  UNL1        0.1764
     14 C           0.1974    2.4027   22.2461 C.ar    1  UNL1        0.0402
     15 O          -1.3674    4.0908   20.7587 O.3     1  UNL1       -0.4346
     16 C          -2.5254    4.9706   21.1261 C.3     1  UNL1        0.4294
     17 O          -2.7789    4.8133   22.5962 O.3     1  UNL1       -0.4346
     18 C           3.5332   -1.9327   21.9070 C.ar    1  UNL1        0.0276
     19 C           4.6027   -2.9524   22.1647 C.ar    1  UNL1        0.0022
     20 C           5.0529   -3.8625   21.0606 C.ar    1  UNL1        0.0001
     21 C           4.4336   -3.7529   19.6988 C.ar    1  UNL1        0.0023
     22 C           3.3641   -2.7332   19.4411 C.ar    1  UNL1        0.0296
     23 C           2.9138   -1.8231   20.5452 C.ar    1  UNL1        0.1401
     24 F           1.8443   -0.8034   20.2875 F       1  UNL1       -0.2042
     25 C           6.1748   -1.5678   27.0377 C.3     1  UNL1        0.0473
     26 C           6.9029   -0.4320   26.3820 C.3     1  UNL1        0.0038
     27 C           7.8657   -0.7041   25.2644 C.3     1  UNL1        0.0005
     28 C           7.3513   -1.0692   23.9035 C.3     1  UNL1        0.0047
     29 C           7.4905   -0.1026   22.7649 C.3     1  UNL1        0.0261
     30 C           4.5621    1.5630   20.6671 C.ar    1  UNL1        0.1342
     31 C           4.0476    2.5721   21.6504 C.ar    1  UNL1        0.0365
     32 C           4.6806    2.6897   23.0052 C.ar    1  UNL1        0.0028
     33 C           5.8283    1.7981   23.3767 C.ar    1  UNL1       -0.0044
     34 C           6.3428    0.7890   22.3934 C.ar    1  UNL1       -0.0232
     35 C           5.7098    0.6714   21.0387 C.ar    1  UNL1        0.0082
     36 C           6.2243   -0.3377   20.0554 C.3     1  UNL1        0.0350
     37 C           7.4007   -0.0056   19.1859 C.3     1  UNL1        0.0465
     38 C           7.1840    0.5866   17.8250 C.2     1  UNL1        0.0507
     39 O           6.6301   -0.2605   16.7179 O.co2   1  UNL1       -0.5492
     40 O           7.5213    2.0260   17.5710 O.co2   1  UNL1       -0.5492
     41 O           3.9290    1.4455   19.3124 O.3     1  UNL1       -0.4758
     42 C           4.0310    2.5795   18.3359 C.3     1  UNL1        0.2058
     43 C           2.9340    3.5992   18.2535 C.3     1  UNL1        0.0532
     44 C           1.6099    3.3306   18.9050 C.3     1  UNL1        0.0455
     45 O          -0.6274    3.1996   17.5905 O.co2   1  UNL1       -0.5492
     46 C           0.5708    2.5219   18.1865 C.2     1  UNL1        0.0505
     47 O           0.7298    1.0354   18.0640 O.co2   1  UNL1       -0.5492
@<TRIPOS>UNITY_ATOM_ATTR
39 1
charge -1
45 1
charge -1
@<TRIPOS>BOND
     1    45    46   ar
     2    46    47   ar
     3    46    44    1
     4    44    43    1
     5    43    42    1
     6    42    41    1
     7    41    30    1
     8    30    31   ar
     9    31    32   ar
    10    32    33   ar
    11    33    34   ar
    12    34    29    1
    13    29    28    1
    14    28    27    1
    15    27    26    1
    16    26    25    1
    17    25     1    1
    18     1     2    1
    19     2     3    1
    20     3     4   ar
    21     4     5   ar
    22     5     9    1
    23     9    10   ar
    24    10    11   ar
    25    11    12   ar
    26    12    13   ar
    27    13    14   ar
    28    13    15    1
    29    15    16    1
    30    16    17    1
    31     5     6   ar
    32     6     7   ar
    33     7    18    1
    34    18    19   ar
    35    19    20   ar
    36    20    21   ar
    37    21    22   ar
    38    22    23   ar
    39    23    24    1
    40     7     8   ar
    41    34    35   ar
    42    35    36    1
    43    36    37    1
    44    37    38    1
    45    38    39   ar
    46    38    40   ar
    47    35    30   ar
    48     8     3   ar
    49    14     9   ar
    50    23    18   ar
    51    17    12    1
