@<TRIPOS>MOLECULE
*****
 28 30 0 0 0
SMALL
GASTEIGER

@<TRIPOS>ATOM
      1 N         -10.9457  -19.0811   24.3395 N.ar    1  UNL1       -0.1495
      2 N         -10.4332  -20.3266   24.9999 N.ar    1  UNL1       -0.0450
      3 N          -9.1958  -20.7615   24.2721 N.ar    1  UNL1       -0.1077
      4 C          -8.9434  -19.7848   23.1620 C.ar    1  UNL1        0.2058
      5 N         -10.0249  -18.7462   23.2036 N.ar    1  UNL1       -0.1297
      6 C          -7.8088  -19.8374   22.1822 C.ar    1  UNL1        0.0395
      7 C          -6.6656  -20.7817   22.4086 C.ar    1  UNL1        0.0063
      8 C          -5.5310  -20.8343   21.4289 C.ar    1  UNL1        0.0376
      9 C          -5.5397  -19.9425   20.2228 C.ar    1  UNL1        0.1453
     10 C          -6.6828  -18.9982   19.9964 C.ar    1  UNL1        0.0376
     11 C          -7.8174  -18.9456   20.9761 C.ar    1  UNL1        0.0063
     12 O          -4.4050  -19.9952   19.2430 O.3     1  UNL1       -0.4535
     13 C          -3.1443  -19.2287   19.5135 C.ar    1  UNL1        0.1454
     14 C          -2.5390  -19.2410   20.8859 C.ar    1  UNL1        0.0384
     15 C          -1.2783  -18.4745   21.1564 C.ar    1  UNL1        0.0145
     16 C          -0.6229  -17.6958   20.0546 C.ar    1  UNL1        0.0579
     17 CL          0.6377  -16.9293   20.3251 Cl      1  UNL1       -0.0822
     18 C          -1.2282  -17.6835   18.6822 C.ar    1  UNL1        0.0145
     19 C          -2.4889  -18.4500   18.4117 C.ar    1  UNL1        0.0384
     20 C         -12.1648  -18.3064   24.7440 C.3     1  UNL1        0.1670
     21 N         -14.7207  -18.1560   24.3030 N.3     1  UNL1       -0.3202
     22 C         -13.3118  -18.1603   23.7884 C.3     1  UNL1        0.0831
     23 H         -15.3677  -18.0484   23.5218 H       1  UNL1        0.1189
     24 H         -14.8424  -17.3806   24.9545 H       1  UNL1        0.1189
     25 C         -13.0498  -18.0184   22.3183 C.3     1  UNL1        0.0593
     26 C         -12.6091  -16.6982   21.7590 C.2     1  UNL1        0.0517
     27 O         -12.2110  -15.5869   22.6845 O.co2   1  UNL1       -0.5491
     28 O         -12.5665  -16.4893   20.2743 O.co2   1  UNL1       -0.5491
@<TRIPOS>UNITY_ATOM_ATTR
27 1
charge -1
@<TRIPOS>BOND
     1    22    21    1
     2    22    25    1
     3    25    26    1
     4    26    27   ar
     5    26    28   ar
     6    22    20    1
     7    20     1    1
     8     1     2   ar
     9     2     3   ar
    10     3     4   ar
    11     4     6    1
    12     6     7   ar
    13     7     8   ar
    14     8     9   ar
    15     9    12    1
    16    12    13    1
    17    13    14   ar
    18    14    15   ar
    19    15    16   ar
    20    16    17    1
    21    16    18   ar
    22    18    19   ar
    23     9    10   ar
    24    10    11   ar
    25     4     5   ar
    26     5     1   ar
    27    11     6   ar
    28    19    13   ar
    29    21    23    1
    30    21    24    1
@<TRIPOS>MOLECULE
*****
 28 30 0 0 0
SMALL
GASTEIGER

@<TRIPOS>ATOM
      1 N         -11.7454  -18.2418   20.9570 N.ar    1  UNL1       -0.1495
      2 N         -11.4079  -18.4190   19.5062 N.ar    1  UNL1       -0.0450
      3 N          -9.9371  -18.6947   19.4028 N.ar    1  UNL1       -0.1077
      4 C          -9.3656  -18.6880   20.7897 C.ar    1  UNL1        0.2058
      5 N         -10.4832  -18.4081   21.7502 N.ar    1  UNL1       -0.1297
      6 C          -7.9287  -18.9204   21.1524 C.ar    1  UNL1        0.0395
      7 C          -7.1260  -19.9501   20.4140 C.ar    1  UNL1        0.0063
      8 C          -5.6892  -20.1824   20.7767 C.ar    1  UNL1        0.0376
      9 C          -5.0552  -19.3851   21.8777 C.ar    1  UNL1        0.1453
     10 C          -5.8579  -18.3554   22.6161 C.ar    1  UNL1        0.0376
     11 C          -7.2947  -18.1230   22.2534 C.ar    1  UNL1        0.0063
     12 O          -3.6183  -19.6175   22.2404 O.3     1  UNL1       -0.4535
     13 C          -2.5396  -18.8019   21.5913 C.ar    1  UNL1        0.1454
     14 C          -1.6439  -19.4260   20.5625 C.ar    1  UNL1        0.0384
     15 C          -0.5652  -18.6104   19.9135 C.ar    1  UNL1        0.0145
     16 C          -0.3822  -17.1708   20.2932 C.ar    1  UNL1        0.0579
     17 CL          0.6965  -16.3553   19.6441 Cl      1  UNL1       -0.0822
     18 C          -1.2778  -16.5468   21.3220 C.ar    1  UNL1        0.0145
     19 C          -2.3565  -17.3623   21.9710 C.ar    1  UNL1        0.0384
     20 C         -13.1063  -17.9497   21.5163 C.3     1  UNL1        0.1670
     21 N         -12.4741  -15.9499   23.0497 N.3     1  UNL1       -0.3202
     22 C         -13.2405  -17.2186   22.8191 C.3     1  UNL1        0.0831
     23 H         -12.6835  -15.5907   23.9811 H       1  UNL1        0.1189
     24 H         -12.7433  -15.2582   22.3501 H       1  UNL1        0.1189
     25 C         -14.1412  -17.7562   23.8915 C.3     1  UNL1        0.0593
     26 C         -13.5607  -18.5155   25.0475 C.2     1  UNL1        0.0517
     27 O         -12.1250  -18.9488   25.0151 O.co2   1  UNL1       -0.5491
     28 O         -14.4158  -18.8416   26.2358 O.co2   1  UNL1       -0.5491
@<TRIPOS>UNITY_ATOM_ATTR
27 1
charge -1
@<TRIPOS>BOND
     1    22    21    1
     2    22    25    1
     3    25    26    1
     4    26    27   ar
     5    26    28   ar
     6    22    20    1
     7    20     1    1
     8     1     2   ar
     9     2     3   ar
    10     3     4   ar
    11     4     6    1
    12     6     7   ar
    13     7     8   ar
    14     8     9   ar
    15     9    12    1
    16    12    13    1
    17    13    14   ar
    18    14    15   ar
    19    15    16   ar
    20    16    17    1
    21    16    18   ar
    22    18    19   ar
    23     9    10   ar
    24    10    11   ar
    25     4     5   ar
    26     5     1   ar
    27    11     6   ar
    28    19    13   ar
    29    21    23    1
    30    21    24    1
@<TRIPOS>MOLECULE
*****
 28 30 0 0 0
SMALL
GASTEIGER

@<TRIPOS>ATOM
      1 N         -12.1664  -17.9749   21.5698 N.ar    1  UNL1       -0.1495
      2 N         -12.0410  -17.3213   20.2255 N.ar    1  UNL1       -0.0450
      3 N         -10.6822  -17.6440   19.6782 N.ar    1  UNL1       -0.1077
      4 C          -9.9679  -18.4970   20.6843 C.ar    1  UNL1        0.2058
      5 N         -10.8852  -18.7015   21.8533 N.ar    1  UNL1       -0.1297
      6 C          -8.5798  -19.0487   20.5456 C.ar    1  UNL1        0.0395
      7 C          -7.5081  -18.6338   21.5095 C.ar    1  UNL1        0.0063
      8 C          -6.1202  -19.1854   21.3707 C.ar    1  UNL1        0.0376
      9 C          -5.8040  -20.1520   20.2681 C.ar    1  UNL1        0.1453
     10 C          -6.8757  -20.5668   19.3042 C.ar    1  UNL1        0.0376
     11 C          -8.2637  -20.0152   19.4429 C.ar    1  UNL1        0.0063
     12 O          -4.4160  -20.7036   20.1294 O.3     1  UNL1       -0.4535
     13 C          -3.2374  -19.7758   20.1220 C.ar    1  UNL1        0.1454
     14 C          -2.3747  -19.6494   21.3425 C.ar    1  UNL1        0.0384
     15 C          -1.1961  -18.7215   21.3351 C.ar    1  UNL1        0.0145
     16 C          -0.8803  -17.9201   20.1071 C.ar    1  UNL1        0.0579
     17 CL          0.2983  -16.9922   20.0997 Cl      1  UNL1       -0.0822
     18 C          -1.7430  -18.0465   18.8866 C.ar    1  UNL1        0.0145
     19 C          -2.9215  -18.9743   18.8940 C.ar    1  UNL1        0.0384
     20 C         -13.3631  -17.9127   22.4722 C.3     1  UNL1        0.1670
     21 N         -14.3157  -17.9139   24.8893 N.3     1  UNL1       -0.3202
     22 C         -13.2298  -18.2784   23.9208 C.3     1  UNL1        0.0831
     23 H         -14.0613  -18.2369   25.8227 H       1  UNL1        0.1189
     24 H         -15.1892  -18.3560   24.6029 H       1  UNL1        0.1189
     25 C         -12.0106  -19.0085   24.4010 C.3     1  UNL1        0.0593
     26 C         -10.7690  -18.2443   24.7536 C.2     1  UNL1        0.0517
     27 O         -10.5384  -16.8799   24.1745 O.co2   1  UNL1       -0.5491
     28 O          -9.7581  -18.8443   25.6851 O.co2   1  UNL1       -0.5491
@<TRIPOS>UNITY_ATOM_ATTR
27 1
charge -1
@<TRIPOS>BOND
     1    22    21    1
     2    22    25    1
     3    25    26    1
     4    26    27   ar
     5    26    28   ar
     6    22    20    1
     7    20     1    1
     8     1     2   ar
     9     2     3   ar
    10     3     4   ar
    11     4     6    1
    12     6     7   ar
    13     7     8   ar
    14     8     9   ar
    15     9    12    1
    16    12    13    1
    17    13    14   ar
    18    14    15   ar
    19    15    16   ar
    20    16    17    1
    21    16    18   ar
    22    18    19   ar
    23     9    10   ar
    24    10    11   ar
    25     4     5   ar
    26     5     1   ar
    27    11     6   ar
    28    19    13   ar
    29    21    23    1
    30    21    24    1
@<TRIPOS>MOLECULE
*****
 28 30 0 0 0
SMALL
GASTEIGER

@<TRIPOS>ATOM
      1 N           7.7036   -5.0430   25.7588 N.ar    1  UNL1       -0.1495
      2 N           8.2735   -5.9705   24.7267 N.ar    1  UNL1       -0.0450
      3 N           7.6867   -5.6006   23.3967 N.ar    1  UNL1       -0.1077
      4 C           6.7542   -4.4446   23.6068 C.ar    1  UNL1        0.2058
      5 N           6.7646   -4.1000   25.0666 N.ar    1  UNL1       -0.1297
      6 C           5.9520   -3.7544   22.5436 C.ar    1  UNL1        0.0395
      7 C           6.4150   -3.7837   21.1172 C.ar    1  UNL1        0.0063
      8 C           5.6128   -3.0935   20.0541 C.ar    1  UNL1        0.0376
      9 C           4.3477   -2.3741   20.4175 C.ar    1  UNL1        0.1453
     10 C           3.8848   -2.3449   21.8439 C.ar    1  UNL1        0.0376
     11 C           4.6869   -3.0350   22.9070 C.ar    1  UNL1        0.0063
     12 O           3.5456   -1.6839   19.3543 O.3     1  UNL1       -0.4535
     13 C           2.6422   -0.5432   19.7183 C.ar    1  UNL1        0.1454
     14 C           1.2278   -0.8115   20.1396 C.ar    1  UNL1        0.0384
     15 C           0.3244    0.3293   20.5036 C.ar    1  UNL1        0.0145
     16 C           0.8354    1.7384   20.4462 C.ar    1  UNL1        0.0579
     17 CL         -0.0680    2.8792   20.8102 Cl      1  UNL1       -0.0822
     18 C           2.2497    2.0068   20.0249 C.ar    1  UNL1        0.0145
     19 C           3.1532    0.8660   19.6609 C.ar    1  UNL1        0.0384
     20 C           8.0175   -5.0563   27.2255 C.3     1  UNL1        0.1670
     21 N           5.5829   -5.7379   27.8236 N.3     1  UNL1       -0.3202
     22 C           7.0314   -5.6316   28.1984 C.3     1  UNL1        0.0831
     23 H           5.0607   -6.1485   28.5976 H       1  UNL1        0.1189
     24 H           5.4879   -6.3291   26.9979 H       1  UNL1        0.1189
     25 C           7.4938   -6.1005   29.5462 C.3     1  UNL1        0.0593
     26 C           6.9408   -5.4703   30.7899 C.2     1  UNL1        0.0517
     27 O           6.5818   -4.0139   30.7968 O.co2   1  UNL1       -0.5491
     28 O           6.7467   -6.2964   32.0267 O.co2   1  UNL1       -0.5491
@<TRIPOS>UNITY_ATOM_ATTR
27 1
charge -1
@<TRIPOS>BOND
     1    22    21    1
     2    22    25    1
     3    25    26    1
     4    26    27   ar
     5    26    28   ar
     6    22    20    1
     7    20     1    1
     8     1     2   ar
     9     2     3   ar
    10     3     4   ar
    11     4     6    1
    12     6     7   ar
    13     7     8   ar
    14     8     9   ar
    15     9    12    1
    16    12    13    1
    17    13    14   ar
    18    14    15   ar
    19    15    16   ar
    20    16    17    1
    21    16    18   ar
    22    18    19   ar
    23     9    10   ar
    24    10    11   ar
    25     4     5   ar
    26     5     1   ar
    27    11     6   ar
    28    19    13   ar
    29    21    23    1
    30    21    24    1
@<TRIPOS>MOLECULE
*****
 28 30 0 0 0
SMALL
GASTEIGER

@<TRIPOS>ATOM
      1 N          -2.8973    3.5983   21.7973 N.ar    1  UNL1       -0.1495
      2 N          -1.9296    3.6988   22.9390 N.ar    1  UNL1       -0.0450
      3 N          -0.6656    2.9976   22.5383 N.ar    1  UNL1       -0.1077
      4 C          -0.8521    2.4636   21.1490 C.ar    1  UNL1        0.2058
      5 N          -2.2314    2.8349   20.6910 N.ar    1  UNL1       -0.1297
      6 C           0.1626    1.6936   20.3568 C.ar    1  UNL1        0.0395
      7 C           0.3425    0.2237   20.5959 C.ar    1  UNL1        0.0063
      8 C           1.3571   -0.5462   19.8037 C.ar    1  UNL1        0.0376
      9 C           2.1919    0.1536   18.7725 C.ar    1  UNL1        0.1453
     10 C           2.0120    1.6235   18.5335 C.ar    1  UNL1        0.0376
     11 C           0.9973    2.3934   19.3257 C.ar    1  UNL1        0.0063
     12 O           3.2066   -0.6164   17.9803 O.3     1  UNL1       -0.4535
     13 C           4.2025   -1.4894   18.6844 C.ar    1  UNL1        0.1454
     14 C           5.4328   -0.8840   19.2927 C.ar    1  UNL1        0.0384
     15 C           6.4288   -1.7571   19.9968 C.ar    1  UNL1        0.0145
     16 C           6.1945   -3.2355   20.0927 C.ar    1  UNL1        0.0579
     17 CL          7.1904   -4.1085   20.7969 Cl      1  UNL1       -0.0822
     18 C           4.9642   -3.8410   19.4845 C.ar    1  UNL1        0.0145
     19 C           3.9683   -2.9680   18.7804 C.ar    1  UNL1        0.0384
     20 C          -4.2870    4.1621   21.7671 C.3     1  UNL1        0.1670
     21 N          -4.9076    2.7761   23.8751 N.3     1  UNL1       -0.3202
     22 C          -5.3133    3.6806   22.7493 C.3     1  UNL1        0.0831
     23 H          -5.7255    2.5493   24.4407 H       1  UNL1        0.1189
     24 H          -4.2126    3.2460   24.4552 H       1  UNL1        0.1189
     25 C          -6.7453    4.1035   22.6059 C.3     1  UNL1        0.0593
     26 C          -7.5136    4.5693   23.8070 C.2     1  UNL1        0.0517
     27 O          -9.0134    4.5715   23.7832 O.co2   1  UNL1       -0.5491
     28 O          -6.7823    5.0327   25.0318 O.co2   1  UNL1       -0.5491
@<TRIPOS>UNITY_ATOM_ATTR
27 1
charge -1
@<TRIPOS>BOND
     1    22    21    1
     2    22    25    1
     3    25    26    1
     4    26    27   ar
     5    26    28   ar
     6    22    20    1
     7    20     1    1
     8     1     2   ar
     9     2     3   ar
    10     3     4   ar
    11     4     6    1
    12     6     7   ar
    13     7     8   ar
    14     8     9   ar
    15     9    12    1
    16    12    13    1
    17    13    14   ar
    18    14    15   ar
    19    15    16   ar
    20    16    17    1
    21    16    18   ar
    22    18    19   ar
    23     9    10   ar
    24    10    11   ar
    25     4     5   ar
    26     5     1   ar
    27    11     6   ar
    28    19    13   ar
    29    21    23    1
    30    21    24    1
@<TRIPOS>MOLECULE
*****
 28 30 0 0 0
SMALL
GASTEIGER

@<TRIPOS>ATOM
      1 N         -11.5230  -18.6084   22.2693 N.ar    1  UNL1       -0.1495
      2 N         -11.3555  -19.6431   23.3423 N.ar    1  UNL1       -0.0450
      3 N          -9.9885  -20.2436   23.1977 N.ar    1  UNL1       -0.1077
      4 C          -9.3113  -19.5801   22.0353 C.ar    1  UNL1        0.2058
      5 N         -10.2597  -18.5695   21.4615 N.ar    1  UNL1       -0.1297
      6 C          -7.9285  -19.8754   21.5346 C.ar    1  UNL1        0.0395
      7 C          -6.7369  -19.5444   22.3835 C.ar    1  UNL1        0.0063
      8 C          -5.3542  -19.8397   21.8828 C.ar    1  UNL1        0.0376
      9 C          -5.1630  -20.4660   20.5332 C.ar    1  UNL1        0.1453
     10 C          -6.3546  -20.7969   19.6843 C.ar    1  UNL1        0.0376
     11 C          -7.7373  -20.5016   20.1850 C.ar    1  UNL1        0.0063
     12 O          -3.7801  -20.7612   20.0325 O.3     1  UNL1       -0.4535
     13 C          -2.7370  -19.6834   20.0310 C.ar    1  UNL1        0.1454
     14 C          -1.8752  -19.4719   21.2404 C.ar    1  UNL1        0.0384
     15 C          -0.8320  -18.3940   21.2388 C.ar    1  UNL1        0.0145
     16 C          -0.6506  -17.5277   20.0278 C.ar    1  UNL1        0.0579
     17 CL          0.3925  -16.4498   20.0263 Cl      1  UNL1       -0.0822
     18 C          -1.5124  -17.7391   18.8184 C.ar    1  UNL1        0.0145
     19 C          -2.5555  -18.8170   18.8200 C.ar    1  UNL1        0.0384
     20 C         -12.7403  -17.7614   22.0436 C.3     1  UNL1        0.1670
     21 N         -12.6829  -15.2491   22.7031 N.3     1  UNL1       -0.3202
     22 C         -12.5898  -16.3199   21.6569 C.3     1  UNL1        0.0831
     23 H         -12.5581  -14.3356   22.2668 H       1  UNL1        0.1189
     24 H         -11.9554  -15.3936   23.4033 H       1  UNL1        0.1189
     25 C         -12.3461  -15.9493   20.2240 C.3     1  UNL1        0.0593
     26 C         -11.0220  -15.3777   19.8118 C.2     1  UNL1        0.0517
     27 O         -10.8555  -14.7800   18.4462 O.co2   1  UNL1       -0.5491
     28 O          -9.8644  -15.4037   20.7653 O.co2   1  UNL1       -0.5491
@<TRIPOS>UNITY_ATOM_ATTR
27 1
charge -1
@<TRIPOS>BOND
     1    22    21    1
     2    22    25    1
     3    25    26    1
     4    26    27   ar
     5    26    28   ar
     6    22    20    1
     7    20     1    1
     8     1     2   ar
     9     2     3   ar
    10     3     4   ar
    11     4     6    1
    12     6     7   ar
    13     7     8   ar
    14     8     9   ar
    15     9    12    1
    16    12    13    1
    17    13    14   ar
    18    14    15   ar
    19    15    16   ar
    20    16    17    1
    21    16    18   ar
    22    18    19   ar
    23     9    10   ar
    24    10    11   ar
    25     4     5   ar
    26     5     1   ar
    27    11     6   ar
    28    19    13   ar
    29    21    23    1
    30    21    24    1
@<TRIPOS>MOLECULE
*****
 28 30 0 0 0
SMALL
GASTEIGER

@<TRIPOS>ATOM
      1 N         -18.2779    0.9864   21.2000 N.ar    1  UNL1       -0.1495
      2 N         -18.8987   -0.3103   20.7717 N.ar    1  UNL1       -0.0450
      3 N         -17.8285   -1.1498   20.1394 N.ar    1  UNL1       -0.1077
      4 C         -16.5464   -0.3721   20.1768 C.ar    1  UNL1        0.2058
      5 N         -16.8242    0.9482   20.8323 N.ar    1  UNL1       -0.1297
      6 C         -15.2195   -0.8336   19.6510 C.ar    1  UNL1        0.0395
      7 C         -14.6442   -2.1404   20.1104 C.ar    1  UNL1        0.0063
      8 C         -13.3173   -2.6019   19.5846 C.ar    1  UNL1        0.0376
      9 C         -12.5658   -1.7565   18.5994 C.ar    1  UNL1        0.1453
     10 C         -13.1412   -0.4496   18.1401 C.ar    1  UNL1        0.0376
     11 C         -14.4680    0.0118   18.6659 C.ar    1  UNL1        0.0063
     12 O         -11.2389   -2.2180   18.0736 O.3     1  UNL1       -0.4535
     13 C         -10.9106   -3.6813   18.0471 C.ar    1  UNL1        0.1454
     14 C         -11.5316   -4.5707   17.0111 C.ar    1  UNL1        0.0384
     15 C         -11.2032   -6.0341   16.9846 C.ar    1  UNL1        0.0145
     16 C         -10.2538   -6.6081   17.9941 C.ar    1  UNL1        0.0579
     17 CL         -9.9254   -8.0714   17.9676 Cl      1  UNL1       -0.0822
     18 C          -9.6327   -5.7187   19.0301 C.ar    1  UNL1        0.0145
     19 C          -9.9610   -4.2554   19.0566 C.ar    1  UNL1        0.0384
     20 C         -18.9866    2.1219   21.8771 C.3     1  UNL1        0.1670
     21 N         -18.7397    1.6864   24.4265 N.3     1  UNL1       -0.3202
     22 C         -18.5448    2.5780   23.2361 C.3     1  UNL1        0.0831
     23 H         -18.3847    2.1520   25.2617 H       1  UNL1        0.1189
     24 H         -18.2336    0.8125   24.2832 H       1  UNL1        0.1189
     25 C         -17.9082    3.9257   23.4046 C.3     1  UNL1        0.0593
     26 C         -16.4174    4.0672   23.3175 C.2     1  UNL1        0.0517
     27 O         -15.7350    4.0064   21.9831 O.co2   1  UNL1       -0.5491
     28 O         -15.6091    4.2693   24.5647 O.co2   1  UNL1       -0.5491
@<TRIPOS>UNITY_ATOM_ATTR
27 1
charge -1
@<TRIPOS>BOND
     1    22    21    1
     2    22    25    1
     3    25    26    1
     4    26    27   ar
     5    26    28   ar
     6    22    20    1
     7    20     1    1
     8     1     2   ar
     9     2     3   ar
    10     3     4   ar
    11     4     6    1
    12     6     7   ar
    13     7     8   ar
    14     8     9   ar
    15     9    12    1
    16    12    13    1
    17    13    14   ar
    18    14    15   ar
    19    15    16   ar
    20    16    17    1
    21    16    18   ar
    22    18    19   ar
    23     9    10   ar
    24    10    11   ar
    25     4     5   ar
    26     5     1   ar
    27    11     6   ar
    28    19    13   ar
    29    21    23    1
    30    21    24    1
@<TRIPOS>MOLECULE
*****
 28 30 0 0 0
SMALL
GASTEIGER

@<TRIPOS>ATOM
      1 N           7.2257   -4.5990   25.2096 N.ar    1  UNL1       -0.1495
      2 N           7.8037   -5.3434   24.0426 N.ar    1  UNL1       -0.0450
      3 N           7.0610   -4.9210   22.8097 N.ar    1  UNL1       -0.1077
      4 C           6.0242   -3.9156   23.2147 C.ar    1  UNL1        0.2058
      5 N           6.1259   -3.7166   24.6980 N.ar    1  UNL1       -0.1297
      6 C           5.0555   -3.2296   22.2975 C.ar    1  UNL1        0.0395
      7 C           4.2509   -2.0644   22.7921 C.ar    1  UNL1        0.0063
      8 C           3.2823   -1.3785   21.8749 C.ar    1  UNL1        0.0376
      9 C           3.1184   -1.8578   20.4630 C.ar    1  UNL1        0.1453
     10 C           3.9230   -3.0230   19.9684 C.ar    1  UNL1        0.0376
     11 C           4.8916   -3.7090   20.8856 C.ar    1  UNL1        0.0063
     12 O           2.1498   -1.1718   19.5458 O.3     1  UNL1       -0.4535
     13 C           2.3877    0.2500   19.1313 C.ar    1  UNL1        0.1454
     14 C           3.7772    0.7151   18.8102 C.ar    1  UNL1        0.0384
     15 C           4.0151    2.1369   18.3957 C.ar    1  UNL1        0.0145
     16 C           2.8636    3.0936   18.3022 C.ar    1  UNL1        0.0579
     17 CL          3.1016    4.5154   17.8877 Cl      1  UNL1       -0.0822
     18 C           1.4741    2.6285   18.6232 C.ar    1  UNL1        0.0145
     19 C           1.2362    1.2067   19.0378 C.ar    1  UNL1        0.0384
     20 C           7.6697   -4.7165   26.6376 C.3     1  UNL1        0.1670
     21 N           5.6795   -5.7520   27.9479 N.3     1  UNL1       -0.3202
     22 C           7.1130   -5.8030   27.5091 C.3     1  UNL1        0.0831
     23 H           5.4730   -6.5637   28.5301 H       1  UNL1        0.1189
     24 H           5.0726   -5.7584   27.1281 H       1  UNL1        0.1189
     25 C           7.9898   -6.9405   27.9419 C.3     1  UNL1        0.0593
     26 C           7.9973   -8.2210   27.1607 C.2     1  UNL1        0.0517
     27 O           7.2900   -8.2980   25.8402 O.co2   1  UNL1       -0.5491
     28 O           8.7119   -9.4244   27.7000 O.co2   1  UNL1       -0.5491
@<TRIPOS>UNITY_ATOM_ATTR
27 1
charge -1
@<TRIPOS>BOND
     1    22    21    1
     2    22    25    1
     3    25    26    1
     4    26    27   ar
     5    26    28   ar
     6    22    20    1
     7    20     1    1
     8     1     2   ar
     9     2     3   ar
    10     3     4   ar
    11     4     6    1
    12     6     7   ar
    13     7     8   ar
    14     8     9   ar
    15     9    12    1
    16    12    13    1
    17    13    14   ar
    18    14    15   ar
    19    15    16   ar
    20    16    17    1
    21    16    18   ar
    22    18    19   ar
    23     9    10   ar
    24    10    11   ar
    25     4     5   ar
    26     5     1   ar
    27    11     6   ar
    28    19    13   ar
    29    21    23    1
    30    21    24    1
@<TRIPOS>MOLECULE
*****
 28 30 0 0 0
SMALL
GASTEIGER

@<TRIPOS>ATOM
      1 N           3.7330    2.2678   36.2315 N.ar    1  UNL1       -0.1495
      2 N           3.8816    3.0355   34.9514 N.ar    1  UNL1       -0.0450
      3 N           4.4624    2.1120   33.9219 N.ar    1  UNL1       -0.1077
      4 C           4.6727    0.7736   34.5657 C.ar    1  UNL1        0.2058
      5 N           4.2219    0.8699   35.9931 N.ar    1  UNL1       -0.1297
      6 C           5.2352   -0.4469   33.8991 C.ar    1  UNL1        0.0395
      7 C           4.3429   -1.6135   33.5944 C.ar    1  UNL1        0.0063
      8 C           4.9053   -2.8338   32.9279 C.ar    1  UNL1        0.0376
      9 C           6.3600   -2.8876   32.5660 C.ar    1  UNL1        0.1453
     10 C           7.2523   -1.7210   32.8707 C.ar    1  UNL1        0.0376
     11 C           6.6899   -0.5007   33.5373 C.ar    1  UNL1        0.0063
     12 O           6.9224   -4.1080   31.8994 O.3     1  UNL1       -0.4535
     13 C           6.8517   -4.2477   30.4076 C.ar    1  UNL1        0.1454
     14 C           6.6989   -3.0289   29.5467 C.ar    1  UNL1        0.0384
     15 C           6.6282   -3.1686   28.0548 C.ar    1  UNL1        0.0145
     16 C           6.7102   -4.5270   27.4240 C.ar    1  UNL1        0.0579
     17 CL          6.6394   -4.6666   25.9322 Cl      1  UNL1       -0.0822
     18 C           6.8629   -5.7458   28.2850 C.ar    1  UNL1        0.0145
     19 C           6.9337   -5.6061   29.7768 C.ar    1  UNL1        0.0384
     20 C           3.1906    2.8039   37.5232 C.3     1  UNL1        0.1670
     21 N           4.4303    2.0184   39.6670 N.3     1  UNL1       -0.3202
     22 C           3.2348    1.9605   38.7628 C.3     1  UNL1        0.0831
     23 H           4.2915    1.3857   40.4549 H       1  UNL1        0.1189
     24 H           4.5495    2.9707   40.0125 H       1  UNL1        0.1189
     25 C           2.0837    1.0592   39.0982 C.3     1  UNL1        0.0593
     26 C           0.8372    1.6296   39.7072 C.2     1  UNL1        0.0517
     27 O          -0.3128    2.0258   38.8295 O.co2   1  UNL1       -0.5491
     28 O           0.7408    1.8039   41.1939 O.co2   1  UNL1       -0.5491
@<TRIPOS>UNITY_ATOM_ATTR
27 1
charge -1
@<TRIPOS>BOND
     1    22    21    1
     2    22    25    1
     3    25    26    1
     4    26    27   ar
     5    26    28   ar
     6    22    20    1
     7    20     1    1
     8     1     2   ar
     9     2     3   ar
    10     3     4   ar
    11     4     6    1
    12     6     7   ar
    13     7     8   ar
    14     8     9   ar
    15     9    12    1
    16    12    13    1
    17    13    14   ar
    18    14    15   ar
    19    15    16   ar
    20    16    17    1
    21    16    18   ar
    22    18    19   ar
    23     9    10   ar
    24    10    11   ar
    25     4     5   ar
    26     5     1   ar
    27    11     6   ar
    28    19    13   ar
    29    21    23    1
    30    21    24    1
