@<TRIPOS>MOLECULE
*****
 31 33 0 0 0
SMALL
GASTEIGER

@<TRIPOS>ATOM
      1 N          -8.1519  -17.3167   22.6514 N.pl3   1  UNL1       -0.3035
      2 C          -4.2052  -19.9220   20.3028 C.2     1  UNL1        0.2252
      3 O          -4.0192  -21.1740   19.4978 O.2     1  UNL1       -0.2749
      4 N          -5.5704  -19.5423   20.7945 N.am    1  UNL1       -0.2778
      5 C          -6.8369  -20.3114   20.5613 C.3     1  UNL1        0.0952
      6 C          -7.9582  -19.5713   21.2286 C.3     1  UNL1        0.0430
      7 C          -7.3845  -18.3448   21.8741 C.3     1  UNL1        0.0946
      8 C          -5.9088  -18.3269   21.6058 C.3     1  UNL1        0.1131
      9 C          -2.3012  -19.2074   21.9197 C.3     1  UNL1        0.0096
     10 C          -3.0257  -19.0497   20.6159 C.3     1  UNL1        0.0767
     11 C          -2.5707  -18.0196   19.6249 C.3     1  UNL1        0.0096
     12 C          -9.5705  -17.5878   23.0567 C.ar    1  UNL1        0.0490
     13 C          -9.8663  -18.6114   24.1124 C.ar    1  UNL1        0.0153
     14 C         -11.2848  -18.8825   24.5177 C.ar    1  UNL1        0.0124
     15 C         -12.4075  -18.1299   23.8673 C.ar    1  UNL1        0.0791
     16 C         -12.1118  -17.1062   22.8116 C.ar    1  UNL1        0.0685
     17 CL        -13.2345  -16.3536   22.1612 Cl      1  UNL1       -0.0815
     18 C         -10.6932  -16.8351   22.4062 C.ar    1  UNL1        0.0266
     19 C         -13.8261  -18.4010   24.2727 C.1     1  UNL1        0.1013
     20 N         -15.2446  -18.6721   24.6780 N.1     1  UNL1       -0.1908
     21 C          -7.5008  -16.0176   23.0233 C.3     1  UNL1        0.1177
     22 C          -7.1433  -15.7403   24.4535 C.ar    1  UNL1        0.0015
     23 C          -8.2256  -15.5048   25.4650 C.ar    1  UNL1       -0.0027
     24 C          -7.8681  -15.2275   26.8951 C.ar    1  UNL1       -0.0003
     25 C          -6.4283  -15.1856   27.3137 C.ar    1  UNL1       -0.0001
     26 C          -5.3459  -15.4211   26.3022 C.ar    1  UNL1        0.0036
     27 C          -5.7035  -15.6984   24.8721 C.ar    1  UNL1        0.0691
     28 C          -4.6212  -15.9339   23.8605 C.3     1  UNL1        0.4183
     29 F          -3.5389  -16.1694   22.8490 F       1  UNL1       -0.1659
     30 F          -4.3636  -17.2883   24.4514 F       1  UNL1       -0.1659
     31 F          -4.8788  -14.5795   23.2696 F       1  UNL1       -0.1659
@<TRIPOS>BOND
     1     9    10    1
     2    10    11    1
     3    10     2    1
     4     2     3    2
     5     2     4   am
     6     4     5    1
     7     5     6    1
     8     6     7    1
     9     7     1    1
    10     1    21    1
    11    21    22    1
    12    22    23   ar
    13    23    24   ar
    14    24    25   ar
    15    25    26   ar
    16    26    27   ar
    17    27    28    1
    18    28    29    1
    19    28    30    1
    20    28    31    1
    21     1    12    1
    22    12    13   ar
    23    13    14   ar
    24    14    15   ar
    25    15    19    1
    26    19    20    3
    27    15    16   ar
    28    16    17    1
    29    16    18   ar
    30     7     8    1
    31     8     4    1
    32    27    22   ar
    33    18    12   ar
@<TRIPOS>MOLECULE
*****
 31 33 0 0 0
SMALL
GASTEIGER

@<TRIPOS>ATOM
      1 N          -7.9996  -18.8426   21.6212 N.pl3   1  UNL1       -0.3035
      2 C          -2.7664  -19.2838   21.0737 C.2     1  UNL1        0.2252
      3 O          -1.7864  -20.2395   20.4604 O.2     1  UNL1       -0.2749
      4 N          -4.2379  -19.5630   20.9917 N.am    1  UNL1       -0.2778
      5 C          -4.8747  -20.7503   20.3323 C.3     1  UNL1        0.0952
      6 C          -6.3614  -20.6250   20.4879 C.3     1  UNL1        0.0430
      7 C          -6.6433  -19.3601   21.2434 C.3     1  UNL1        0.0946
      8 C          -5.3310  -18.7038   21.5548 C.3     1  UNL1        0.1131
      9 C          -2.3848  -17.9337   23.2604 C.3     1  UNL1        0.0096
     10 C          -2.2748  -18.0489   21.7690 C.3     1  UNL1        0.0767
     11 C          -1.6732  -16.9292   20.9726 C.3     1  UNL1        0.0096
     12 C          -8.1673  -18.0120   22.8589 C.ar    1  UNL1        0.0490
     13 C          -8.7828  -18.6130   24.0877 C.ar    1  UNL1        0.0153
     14 C          -8.9505  -17.7824   25.3255 C.ar    1  UNL1        0.0124
     15 C          -8.5028  -16.3509   25.3344 C.ar    1  UNL1        0.0791
     16 C          -7.8874  -15.7498   24.1056 C.ar    1  UNL1        0.0685
     17 CL         -7.4397  -14.3182   24.1145 Cl      1  UNL1       -0.0815
     18 C          -7.7196  -16.5804   22.8678 C.ar    1  UNL1        0.0266
     19 C          -8.6706  -15.5203   26.5722 C.1     1  UNL1        0.1013
     20 N          -8.8383  -14.6897   27.8099 N.1     1  UNL1       -0.1908
     21 C          -9.1881  -19.1556   20.7612 C.3     1  UNL1        0.1177
     22 C         -10.3797  -18.2445   20.7682 C.ar    1  UNL1        0.0015
     23 C         -10.4368  -17.0772   19.8279 C.ar    1  UNL1       -0.0027
     24 C         -11.6284  -16.1662   19.8349 C.ar    1  UNL1       -0.0003
     25 C         -12.7629  -16.4224   20.7822 C.ar    1  UNL1       -0.0001
     26 C         -12.7057  -17.5897   21.7225 C.ar    1  UNL1        0.0036
     27 C         -11.5141  -18.5008   21.7156 C.ar    1  UNL1        0.0691
     28 C         -11.4570  -19.6680   22.6558 C.3     1  UNL1        0.4183
     29 F         -11.3998  -20.8353   23.5961 F       1  UNL1       -0.1659
     30 F         -11.2006  -20.5875   21.4988 F       1  UNL1       -0.1659
     31 F         -11.7133  -18.7485   23.8129 F       1  UNL1       -0.1659
@<TRIPOS>BOND
     1     9    10    1
     2    10    11    1
     3    10     2    1
     4     2     3    2
     5     2     4   am
     6     4     5    1
     7     5     6    1
     8     6     7    1
     9     7     1    1
    10     1    21    1
    11    21    22    1
    12    22    23   ar
    13    23    24   ar
    14    24    25   ar
    15    25    26   ar
    16    26    27   ar
    17    27    28    1
    18    28    29    1
    19    28    30    1
    20    28    31    1
    21     1    12    1
    22    12    13   ar
    23    13    14   ar
    24    14    15   ar
    25    15    19    1
    26    19    20    3
    27    15    16   ar
    28    16    17    1
    29    16    18   ar
    30     7     8    1
    31     8     4    1
    32    27    22   ar
    33    18    12   ar
@<TRIPOS>MOLECULE
*****
 31 33 0 0 0
SMALL
GASTEIGER

@<TRIPOS>ATOM
      1 N          -8.2130  -18.1430   21.9608 N.pl3   1  UNL1       -0.3035
      2 C          -3.1240  -19.2895   21.1433 C.2     1  UNL1        0.2252
      3 O          -2.3159  -20.3759   20.4979 O.2     1  UNL1       -0.2749
      4 N          -4.6218  -19.3697   21.1458 N.am    1  UNL1       -0.2778
      5 C          -5.4469  -20.4692   20.5454 C.3     1  UNL1        0.0952
      6 C          -6.8927  -20.1435   20.7776 C.3     1  UNL1        0.0430
      7 C          -6.9610  -18.8427   21.5216 C.3     1  UNL1        0.0946
      8 C          -5.5576  -18.3645   21.7491 C.3     1  UNL1        0.1131
      9 C          -1.7654  -17.0848   20.9351 C.3     1  UNL1        0.0096
     10 C          -2.4342  -18.1230   21.7863 C.3     1  UNL1        0.0767
     11 C          -2.4134  -17.9948   23.2807 C.3     1  UNL1        0.0096
     12 C          -8.2199  -17.3447   23.2307 C.ar    1  UNL1        0.0490
     13 C          -7.6773  -15.9463   23.2404 C.ar    1  UNL1        0.0153
     14 C          -7.6842  -15.1480   24.5103 C.ar    1  UNL1        0.0124
     15 C          -8.2336  -15.7480   25.7705 C.ar    1  UNL1        0.0791
     16 C          -8.7762  -17.1465   25.7608 C.ar    1  UNL1        0.0685
     17 CL         -9.3256  -17.7465   27.0210 Cl      1  UNL1       -0.0815
     18 C          -8.7693  -17.9448   24.4909 C.ar    1  UNL1        0.0266
     19 C          -8.2404  -14.9497   27.0404 C.1     1  UNL1        0.1013
     20 N          -8.2473  -14.1514   28.3103 N.1     1  UNL1       -0.1908
     21 C          -9.4581  -18.2417   21.1302 C.3     1  UNL1        0.1177
     22 C         -10.7958  -17.9603   21.7477 C.ar    1  UNL1        0.0015
     23 C         -11.3212  -18.8484   22.8363 C.ar    1  UNL1       -0.0027
     24 C         -12.6589  -18.5670   23.4537 C.ar    1  UNL1       -0.0003
     25 C         -13.4713  -17.3974   22.9826 C.ar    1  UNL1       -0.0001
     26 C         -12.9460  -16.5092   21.8939 C.ar    1  UNL1        0.0036
     27 C         -11.6083  -16.7906   21.2764 C.ar    1  UNL1        0.0691
     28 C         -11.0829  -15.9025   20.1878 C.3     1  UNL1        0.4183
     29 F         -10.5576  -15.0143   19.0992 F       1  UNL1       -0.1659
     30 F         -10.1879  -15.2182   21.1780 F       1  UNL1       -0.1659
     31 F         -11.9780  -16.5868   19.1976 F       1  UNL1       -0.1659
@<TRIPOS>BOND
     1     9    10    1
     2    10    11    1
     3    10     2    1
     4     2     3    2
     5     2     4   am
     6     4     5    1
     7     5     6    1
     8     6     7    1
     9     7     1    1
    10     1    21    1
    11    21    22    1
    12    22    23   ar
    13    23    24   ar
    14    24    25   ar
    15    25    26   ar
    16    26    27   ar
    17    27    28    1
    18    28    29    1
    19    28    30    1
    20    28    31    1
    21     1    12    1
    22    12    13   ar
    23    13    14   ar
    24    14    15   ar
    25    15    19    1
    26    19    20    3
    27    15    16   ar
    28    16    17    1
    29    16    18   ar
    30     7     8    1
    31     8     4    1
    32    27    22   ar
    33    18    12   ar
@<TRIPOS>MOLECULE
*****
 31 33 0 0 0
SMALL
GASTEIGER

@<TRIPOS>ATOM
      1 N          -8.2132  -17.7697   21.8632 N.pl3   1  UNL1       -0.3035
      2 C          -3.5993  -19.9201   20.4604 C.2     1  UNL1        0.2252
      3 O          -3.0971  -21.2242   19.9154 O.2     1  UNL1       -0.2749
      4 N          -5.0637  -19.7318   20.7245 N.am    1  UNL1       -0.2778
      5 C          -6.1395  -20.7514   20.4938 C.3     1  UNL1        0.0952
      6 C          -7.4503  -20.1404   20.8923 C.3     1  UNL1        0.0430
      7 C          -7.1845  -18.7433   21.3692 C.3     1  UNL1        0.0946
      8 C          -5.7096  -18.4907   21.2655 C.3     1  UNL1        0.1131
      9 C          -2.2491  -17.8549   19.6470 C.3     1  UNL1        0.0096
     10 C          -2.6368  -18.8044   20.7414 C.3     1  UNL1        0.0767
     11 C          -2.0622  -18.6383   22.1170 C.3     1  UNL1        0.0096
     12 C          -7.9982  -17.0440   23.1582 C.ar    1  UNL1        0.0490
     13 C          -7.1355  -15.8176   23.1965 C.ar    1  UNL1        0.0153
     14 C          -6.9205  -15.0919   24.4915 C.ar    1  UNL1        0.0124
     15 C          -7.5681  -15.5928   25.7484 C.ar    1  UNL1        0.0791
     16 C          -8.4308  -16.8193   25.7102 C.ar    1  UNL1        0.0685
     17 CL         -9.0785  -17.3201   26.9670 Cl      1  UNL1       -0.0815
     18 C          -8.6459  -17.5449   24.4151 C.ar    1  UNL1        0.0266
     19 C          -7.3531  -14.8671   27.0434 C.1     1  UNL1        0.1013
     20 N          -7.1380  -14.1415   28.3385 N.1     1  UNL1       -0.1908
     21 C          -9.4569  -17.5218   21.0621 C.3     1  UNL1        0.1177
     22 C         -10.7657  -17.2962   21.7594 C.ar    1  UNL1        0.0015
     23 C         -11.2408  -15.8993   22.0290 C.ar    1  UNL1       -0.0027
     24 C         -12.5496  -15.6737   22.7263 C.ar    1  UNL1       -0.0003
     25 C         -13.3832  -16.8451   23.1539 C.ar    1  UNL1       -0.0001
     26 C         -12.9081  -18.2421   22.8842 C.ar    1  UNL1        0.0036
     27 C         -11.5993  -18.4677   22.1870 C.ar    1  UNL1        0.0691
     28 C         -11.1241  -19.8646   21.9173 C.3     1  UNL1        0.4183
     29 F         -10.6490  -21.2615   21.6476 F       1  UNL1       -0.1659
     30 F         -10.6349  -19.9712   23.3312 F       1  UNL1       -0.1659
     31 F         -11.6134  -19.7580   20.5033 F       1  UNL1       -0.1659
@<TRIPOS>BOND
     1     9    10    1
     2    10    11    1
     3    10     2    1
     4     2     3    2
     5     2     4   am
     6     4     5    1
     7     5     6    1
     8     6     7    1
     9     7     1    1
    10     1    21    1
    11    21    22    1
    12    22    23   ar
    13    23    24   ar
    14    24    25   ar
    15    25    26   ar
    16    26    27   ar
    17    27    28    1
    18    28    29    1
    19    28    30    1
    20    28    31    1
    21     1    12    1
    22    12    13   ar
    23    13    14   ar
    24    14    15   ar
    25    15    19    1
    26    19    20    3
    27    15    16   ar
    28    16    17    1
    29    16    18   ar
    30     7     8    1
    31     8     4    1
    32    27    22   ar
    33    18    12   ar
