@<TRIPOS>MOLECULE
*****
 33 37 0 0 0
SMALL
GASTEIGER

@<TRIPOS>ATOM
      1 C          -7.0299  -19.7708   21.3704 C.3     1  UNL1        0.0749
      2 C          -6.3867  -18.7030   22.2047 C.3     1  UNL1        0.0444
      3 C          -4.8934  -18.5627   22.2221 C.ar    1  UNL1       -0.0101
      4 C          -4.0433  -19.4901   21.4054 C.ar    1  UNL1       -0.0091
      5 C          -2.5500  -19.3497   21.4229 C.ar    1  UNL1       -0.0032
      6 C          -1.9068  -18.2819   22.2571 C.ar    1  UNL1        0.0010
      7 C          -2.7569  -17.3544   23.0739 C.ar    1  UNL1        0.0142
      8 C          -4.2502  -17.4948   23.0564 C.ar    1  UNL1        0.0436
      9 C          -4.6865  -20.5579   20.5711 C.3     1  UNL1        0.0954
     10 N          -6.1798  -20.6983   20.5536 N.3     1  UNL1       -0.2934
     11 H          -6.3902  -21.6452   20.8690 H       1  UNL1        0.1236
     12 N          -5.1003  -16.5673   23.8732 N.pl3   1  UNL1       -0.3049
     13 C          -6.3110  -15.9261   23.2623 C.3     1  UNL1        0.1079
     14 C          -7.1611  -14.9986   24.0791 C.3     1  UNL1        0.0903
     15 N          -6.8005  -14.7124   25.5068 N.3     1  UNL1       -0.2946
     16 C          -5.5899  -15.3537   26.1176 C.3     1  UNL1        0.0903
     17 C          -4.7398  -16.2811   25.3008 C.3     1  UNL1        0.1079
     18 H          -7.6002  -14.9929   26.0744 H       1  UNL1        0.1233
     19 C          -8.5233  -19.9112   21.3529 C.3     1  UNL1        0.0886
     20 N          -9.3232  -19.2787   20.2529 N.3     1  UNL1       -0.2679
     21 C         -10.4411  -18.3355   20.5854 C.3     1  UNL1        0.0978
     22 C         -10.8582  -17.2883   19.5959 C.3     1  UNL1        0.0224
     23 C         -11.9761  -16.3450   19.9284 C.3     1  UNL1        0.0065
     24 C         -12.6769  -16.4490   21.2506 C.3     1  UNL1        0.0277
     25 C         -12.2597  -17.4962   22.2403 C.ar    1  UNL1       -0.0073
     26 C         -12.9604  -17.6002   23.5624 C.ar    1  UNL1       -0.0015
     27 C         -12.5433  -18.6474   24.5520 C.ar    1  UNL1        0.0203
     28 C         -11.4254  -19.5906   24.2194 C.ar    1  UNL1        0.0985
     29 N         -10.7246  -19.4867   22.8973 N.ar    1  UNL1       -0.2471
     30 C         -11.1418  -18.4395   21.9077 C.ar    1  UNL1        0.0695
     31 C          -9.0052  -19.5894   18.8202 C.3     1  UNL1        0.0724
     32 C          -9.2262  -21.3447   16.9177 C.3     1  UNL1        0.0015
     33 C          -8.9542  -21.0146   18.3554 C.3     1  UNL1        0.0173
@<TRIPOS>BOND
     1    32    33    1
     2    33    31    1
     3    31    20    1
     4    20    19    1
     5     1    19    1
     6     1     2    1
     7     2     3    1
     8     3     4   ar
     9     4     5   ar
    10     5     6   ar
    11     6     7   ar
    12     7     8   ar
    13     8    12    1
    14    12    13    1
    15    13    14    1
    16    14    15    1
    17    15    16    1
    18    16    17    1
    19     4     9    1
    20     9    10    1
    21    21    20    1
    22    21    22    1
    23    22    23    1
    24    23    24    1
    25    24    25    1
    26    25    26   ar
    27    26    27   ar
    28    27    28   ar
    29    28    29   ar
    30    29    30   ar
    31    10     1    1
    32    30    21    1
    33     8     3   ar
    34    17    12    1
    35    30    25   ar
    36    15    18    1
    37    10    11    1
@<TRIPOS>MOLECULE
*****
 33 37 0 0 0
SMALL
GASTEIGER

@<TRIPOS>ATOM
      1 C          -6.6222  -16.5598   23.3526 C.3     1  UNL1        0.0749
      2 C          -6.8901  -17.5973   22.3030 C.3     1  UNL1        0.0444
      3 C          -5.7891  -18.5118   21.8541 C.ar    1  UNL1       -0.0101
      4 C          -4.4202  -18.3886   22.4547 C.ar    1  UNL1       -0.0091
      5 C          -3.3191  -19.3031   22.0058 C.ar    1  UNL1       -0.0032
      6 C          -3.5871  -20.3407   20.9562 C.ar    1  UNL1        0.0010
      7 C          -4.9561  -20.4638   20.3555 C.ar    1  UNL1        0.0142
      8 C          -6.0571  -19.5494   20.8044 C.ar    1  UNL1        0.0436
      9 C          -4.1522  -17.3511   23.5043 C.3     1  UNL1        0.0954
     10 N          -5.2532  -16.4367   23.9532 N.3     1  UNL1       -0.2934
     11 H          -4.9369  -15.4840   23.7723 H       1  UNL1        0.1236
     12 N          -7.4260  -19.6725   20.2038 N.pl3   1  UNL1       -0.3049
     13 C          -7.6304  -20.4929   18.9647 C.3     1  UNL1        0.1079
     14 C          -8.9993  -20.6160   18.3641 C.3     1  UNL1        0.0903
     15 N         -10.1639  -19.9187   19.0025 N.3     1  UNL1       -0.2946
     16 C          -9.9595  -19.0983   20.2414 C.3     1  UNL1        0.0903
     17 C          -8.5906  -18.9752   20.8421 C.3     1  UNL1        0.1079
     18 H         -10.8468  -20.6395   19.2359 H       1  UNL1        0.1233
     19 C          -7.7232  -15.6453   23.8015 C.3     1  UNL1        0.0886
     20 N          -8.6948  -16.0997   24.8501 N.3     1  UNL1       -0.2679
     21 C          -9.5698  -17.2912   24.5959 C.3     1  UNL1        0.0978
     22 C          -9.3704  -18.5503   25.3863 C.3     1  UNL1        0.0224
     23 C         -10.2454  -19.7419   25.1321 C.3     1  UNL1        0.0065
     24 C         -11.3196  -19.6744   24.0875 C.3     1  UNL1        0.0277
     25 C         -11.5190  -18.4152   23.2969 C.ar    1  UNL1       -0.0073
     26 C         -12.5933  -18.3477   22.2523 C.ar    1  UNL1       -0.0015
     27 C         -12.7926  -17.0886   21.4618 C.ar    1  UNL1        0.0203
     28 C         -11.9177  -15.8970   21.7160 C.ar    1  UNL1        0.0985
     29 N         -10.8434  -15.9645   22.7607 N.ar    1  UNL1       -0.2471
     30 C         -10.6441  -17.2236   23.5511 C.ar    1  UNL1        0.0695
     31 C          -8.7915  -15.3624   26.1529 C.3     1  UNL1        0.0724
     32 C          -6.4573  -15.4375   27.2909 C.3     1  UNL1        0.0015
     33 C          -7.9215  -15.7625   27.3074 C.3     1  UNL1        0.0173
@<TRIPOS>BOND
     1    32    33    1
     2    33    31    1
     3    31    20    1
     4    20    19    1
     5     1    19    1
     6     1     2    1
     7     2     3    1
     8     3     4   ar
     9     4     5   ar
    10     5     6   ar
    11     6     7   ar
    12     7     8   ar
    13     8    12    1
    14    12    13    1
    15    13    14    1
    16    14    15    1
    17    15    16    1
    18    16    17    1
    19     4     9    1
    20     9    10    1
    21    21    20    1
    22    21    22    1
    23    22    23    1
    24    23    24    1
    25    24    25    1
    26    25    26   ar
    27    26    27   ar
    28    27    28   ar
    29    28    29   ar
    30    29    30   ar
    31    10     1    1
    32    30    21    1
    33     8     3   ar
    34    17    12    1
    35    30    25   ar
    36    15    18    1
    37    10    11    1
@<TRIPOS>MOLECULE
*****
 33 37 0 0 0
SMALL
GASTEIGER

@<TRIPOS>ATOM
      1 C          -5.4439  -19.9865   20.9696 C.3     1  UNL1        0.0749
      2 C          -4.8892  -18.8970   21.8385 C.3     1  UNL1        0.0444
      3 C          -3.6138  -18.2073   21.4542 C.ar    1  UNL1       -0.0101
      4 C          -2.8932  -18.6072   20.2009 C.ar    1  UNL1       -0.0091
      5 C          -1.6178  -17.9175   19.8165 C.ar    1  UNL1       -0.0032
      6 C          -1.0631  -16.8279   20.6854 C.ar    1  UNL1        0.0010
      7 C          -1.7837  -16.4280   21.9387 C.ar    1  UNL1        0.0142
      8 C          -3.0590  -17.1177   22.3231 C.ar    1  UNL1        0.0436
      9 C          -3.4479  -19.6968   19.3319 C.3     1  UNL1        0.0954
     10 N          -4.7233  -20.3864   19.7163 N.3     1  UNL1       -0.2934
     11 H          -4.5059  -21.3790   19.8056 H       1  UNL1        0.1236
     12 N          -3.7797  -16.7178   23.5764 N.pl3   1  UNL1       -0.3049
     13 C          -4.6678  -15.5089   23.5777 C.3     1  UNL1        0.1079
     14 C          -5.3884  -15.1090   24.8310 C.3     1  UNL1        0.0903
     15 N          -5.2209  -15.9180   26.0830 N.3     1  UNL1       -0.2946
     16 C          -4.3329  -17.1268   26.0817 C.3     1  UNL1        0.0903
     17 C          -3.6122  -17.5267   24.8284 C.3     1  UNL1        0.1079
     18 H          -6.1512  -16.2363   26.3545 H       1  UNL1        0.1233
     19 C          -6.7193  -20.6763   21.3540 C.3     1  UNL1        0.0886
     20 N          -8.0197  -19.9302   21.3048 N.3     1  UNL1       -0.2679
     21 C          -8.6549  -19.4457   22.5743 C.3     1  UNL1        0.0978
     22 C          -9.3050  -20.4230   23.5082 C.3     1  UNL1        0.0224
     23 C          -9.9402  -19.9384   24.7777 C.3     1  UNL1        0.0065
     24 C          -9.9252  -18.4766   25.1134 C.3     1  UNL1        0.0277
     25 C          -9.2751  -17.4992   24.1795 C.ar    1  UNL1       -0.0073
     26 C          -9.2601  -16.0373   24.5152 C.ar    1  UNL1       -0.0015
     27 C          -8.6100  -15.0600   23.5813 C.ar    1  UNL1        0.0203
     28 C          -7.9748  -15.5446   22.3117 C.ar    1  UNL1        0.0985
     29 N          -7.9898  -17.0065   21.9761 N.ar    1  UNL1       -0.2471
     30 C          -8.6399  -17.9837   22.9100 C.ar    1  UNL1        0.0695
     31 C          -8.6849  -19.6687   19.9860 C.3     1  UNL1        0.0724
     32 C         -10.8547  -18.2548   19.7795 C.3     1  UNL1        0.0015
     33 C         -10.1805  -19.5890   19.9031 C.3     1  UNL1        0.0173
@<TRIPOS>BOND
     1    32    33    1
     2    33    31    1
     3    31    20    1
     4    20    19    1
     5     1    19    1
     6     1     2    1
     7     2     3    1
     8     3     4   ar
     9     4     5   ar
    10     5     6   ar
    11     6     7   ar
    12     7     8   ar
    13     8    12    1
    14    12    13    1
    15    13    14    1
    16    14    15    1
    17    15    16    1
    18    16    17    1
    19     4     9    1
    20     9    10    1
    21    21    20    1
    22    21    22    1
    23    22    23    1
    24    23    24    1
    25    24    25    1
    26    25    26   ar
    27    26    27   ar
    28    27    28   ar
    29    28    29   ar
    30    29    30   ar
    31    10     1    1
    32    30    21    1
    33     8     3   ar
    34    17    12    1
    35    30    25   ar
    36    15    18    1
    37    10    11    1
@<TRIPOS>MOLECULE
*****
 33 37 0 0 0
SMALL
GASTEIGER

@<TRIPOS>ATOM
      1 C          -5.9047  -19.8885   21.4016 C.3     1  UNL1        0.0749
      2 C          -5.5106  -18.6664   22.1769 C.3     1  UNL1        0.0444
      3 C          -4.1711  -18.0319   21.9468 C.ar    1  UNL1       -0.0101
      4 C          -3.2256  -18.6195   20.9414 C.ar    1  UNL1       -0.0091
      5 C          -1.8860  -17.9849   20.7114 C.ar    1  UNL1       -0.0032
      6 C          -1.4919  -16.7628   21.4866 C.ar    1  UNL1        0.0010
      7 C          -2.4374  -16.1752   22.4920 C.ar    1  UNL1        0.0142
      8 C          -3.7769  -16.8097   22.7221 C.ar    1  UNL1        0.0436
      9 C          -3.6196  -19.8416   20.1661 C.3     1  UNL1        0.0954
     10 N          -4.9592  -20.4761   20.3962 N.3     1  UNL1       -0.2934
     11 H          -4.7834  -21.4385   20.6847 H       1  UNL1        0.1236
     12 N          -4.7224  -16.2220   23.7274 N.pl3   1  UNL1       -0.3049
     13 C          -4.4243  -16.3356   25.1932 C.3     1  UNL1        0.1079
     14 C          -5.3698  -15.7479   26.1985 C.3     1  UNL1        0.0903
     15 N          -6.6134  -15.0468   25.7382 N.3     1  UNL1       -0.2946
     16 C          -6.9115  -14.9333   24.2725 C.3     1  UNL1        0.0903
     17 C          -5.9660  -15.5209   23.2671 C.3     1  UNL1        0.1079
     18 H          -6.5677  -14.0957   26.1038 H       1  UNL1        0.1233
     19 C          -7.2443  -20.5230   21.6317 C.3     1  UNL1        0.0886
     20 N          -8.4947  -19.8074   21.2144 N.3     1  UNL1       -0.2679
     21 C          -9.5318  -19.4509   22.2378 C.3     1  UNL1        0.0978
     22 C          -9.6080  -20.2152   23.5262 C.3     1  UNL1        0.0224
     23 C         -10.6451  -19.8587   24.5496 C.3     1  UNL1        0.0065
     24 C         -11.6060  -18.7378   24.2846 C.3     1  UNL1        0.0277
     25 C         -11.5299  -17.9735   22.9961 C.ar    1  UNL1       -0.0073
     26 C         -12.4908  -16.8526   22.7311 C.ar    1  UNL1       -0.0015
     27 C         -12.4147  -16.0883   21.4427 C.ar    1  UNL1        0.0203
     28 C         -11.3776  -16.4449   20.4193 C.ar    1  UNL1        0.0985
     29 N         -10.4167  -17.5657   20.6843 N.ar    1  UNL1       -0.2471
     30 C         -10.4928  -18.3300   21.9727 C.ar    1  UNL1        0.0695
     31 C          -8.7082  -19.4483   19.7737 C.3     1  UNL1        0.0724
     32 C          -8.8880  -21.1744   17.8404 C.3     1  UNL1        0.0015
     33 C          -9.5425  -20.3332   18.8958 C.3     1  UNL1        0.0173
@<TRIPOS>BOND
     1    32    33    1
     2    33    31    1
     3    31    20    1
     4    20    19    1
     5     1    19    1
     6     1     2    1
     7     2     3    1
     8     3     4   ar
     9     4     5   ar
    10     5     6   ar
    11     6     7   ar
    12     7     8   ar
    13     8    12    1
    14    12    13    1
    15    13    14    1
    16    14    15    1
    17    15    16    1
    18    16    17    1
    19     4     9    1
    20     9    10    1
    21    21    20    1
    22    21    22    1
    23    22    23    1
    24    23    24    1
    25    24    25    1
    26    25    26   ar
    27    26    27   ar
    28    27    28   ar
    29    28    29   ar
    30    29    30   ar
    31    10     1    1
    32    30    21    1
    33     8     3   ar
    34    17    12    1
    35    30    25   ar
    36    15    18    1
    37    10    11    1
@<TRIPOS>MOLECULE
*****
 33 37 0 0 0
SMALL
GASTEIGER

@<TRIPOS>ATOM
      1 C          -7.0463  -17.6689   22.7589 C.3     1  UNL1        0.0749
      2 C          -5.7114  -17.8996   22.1151 C.3     1  UNL1        0.0444
      3 C          -5.4571  -19.1633   21.3480 C.ar    1  UNL1       -0.0101
      4 C          -6.5379  -20.1961   21.2246 C.ar    1  UNL1       -0.0091
      5 C          -6.2836  -21.4598   20.4575 C.ar    1  UNL1       -0.0032
      6 C          -4.9486  -21.6906   19.8137 C.ar    1  UNL1        0.0010
      7 C          -3.8679  -20.6578   19.9370 C.ar    1  UNL1        0.0142
      8 C          -4.1221  -19.3941   20.7041 C.ar    1  UNL1        0.0436
      9 C          -7.8729  -19.9653   21.8684 C.3     1  UNL1        0.0954
     10 N          -8.1271  -18.7017   22.6356 N.3     1  UNL1       -0.2934
     11 H          -8.3792  -18.9788   23.5843 H       1  UNL1        0.1236
     12 N          -3.0413  -18.3613   20.8275 N.pl3   1  UNL1       -0.3049
     13 C          -1.9609  -18.2788   19.7902 C.3     1  UNL1        0.1079
     14 C          -0.8801  -17.2459   19.9135 C.3     1  UNL1        0.0903
     15 N          -0.8798  -16.2956   21.0741 N.3     1  UNL1       -0.2946
     16 C          -1.9603  -16.3782   22.1113 C.3     1  UNL1        0.0903
     17 C          -3.0410  -17.4110   21.9880 C.3     1  UNL1        0.1079
     18 H          -0.9178  -15.3540   20.6838 H       1  UNL1        0.1233
     19 C          -7.3006  -16.4052   23.5261 C.3     1  UNL1        0.0886
     20 N          -8.5343  -16.2751   24.3693 N.3     1  UNL1       -0.2679
     21 C          -9.7578  -17.0768   24.0372 C.3     1  UNL1        0.0978
     22 C         -10.2402  -18.1358   24.9837 C.3     1  UNL1        0.0224
     23 C         -11.4637  -18.9376   24.6516 C.3     1  UNL1        0.0065
     24 C         -12.2047  -18.6804   23.3730 C.3     1  UNL1        0.0277
     25 C         -11.7222  -17.6214   22.4265 C.ar    1  UNL1       -0.0073
     26 C         -12.4632  -17.3642   21.1479 C.ar    1  UNL1       -0.0015
     27 C         -11.9808  -16.3053   20.2015 C.ar    1  UNL1        0.0203
     28 C         -10.7573  -15.5035   20.5336 C.ar    1  UNL1        0.0985
     29 N         -10.0163  -15.7607   21.8121 N.ar    1  UNL1       -0.2471
     30 C         -10.4988  -16.8196   22.7586 C.ar    1  UNL1        0.0695
     31 C          -8.5446  -15.3431   25.5447 C.3     1  UNL1        0.0724
     32 C          -6.6230  -15.5066   27.2855 C.3     1  UNL1        0.0015
     33 C          -8.0339  -15.8092   26.8758 C.3     1  UNL1        0.0173
@<TRIPOS>BOND
     1    32    33    1
     2    33    31    1
     3    31    20    1
     4    20    19    1
     5     1    19    1
     6     1     2    1
     7     2     3    1
     8     3     4   ar
     9     4     5   ar
    10     5     6   ar
    11     6     7   ar
    12     7     8   ar
    13     8    12    1
    14    12    13    1
    15    13    14    1
    16    14    15    1
    17    15    16    1
    18    16    17    1
    19     4     9    1
    20     9    10    1
    21    21    20    1
    22    21    22    1
    23    22    23    1
    24    23    24    1
    25    24    25    1
    26    25    26   ar
    27    26    27   ar
    28    27    28   ar
    29    28    29   ar
    30    29    30   ar
    31    10     1    1
    32    30    21    1
    33     8     3   ar
    34    17    12    1
    35    30    25   ar
    36    15    18    1
    37    10    11    1
@<TRIPOS>MOLECULE
*****
 33 37 0 0 0
SMALL
GASTEIGER

@<TRIPOS>ATOM
      1 C          -8.6923  -15.8938   22.6051 C.3     1  UNL1        0.0749
      2 C          -7.2496  -16.2584   22.7941 C.3     1  UNL1        0.0444
      3 C          -6.6127  -16.1230   24.1454 C.ar    1  UNL1       -0.0101
      4 C          -7.4185  -15.6230   25.3076 C.ar    1  UNL1       -0.0091
      5 C          -6.7816  -15.4876   26.6590 C.ar    1  UNL1       -0.0032
      6 C          -5.3389  -15.8522   26.8480 C.ar    1  UNL1        0.0010
      7 C          -4.5331  -16.3522   25.6858 C.ar    1  UNL1        0.0142
      8 C          -5.1700  -16.4876   24.3345 C.ar    1  UNL1        0.0436
      9 C          -8.8612  -15.2584   25.1186 C.3     1  UNL1        0.0954
     10 N          -9.4980  -15.3938   23.7673 N.3     1  UNL1       -0.2934
     11 H          -9.8429  -14.4689   23.5103 H       1  UNL1        0.1236
     12 N          -4.3642  -16.9875   23.1723 N.pl3   1  UNL1       -0.3049
     13 C          -3.2721  -16.1364   22.5954 C.3     1  UNL1        0.1079
     14 C          -2.4663  -16.6363   21.4332 C.3     1  UNL1        0.0903
     15 N          -2.7527  -17.9875   20.8479 N.3     1  UNL1       -0.2946
     16 C          -3.8448  -18.8386   21.4248 C.3     1  UNL1        0.0903
     17 C          -4.6506  -18.3386   22.5870 C.3     1  UNL1        0.1079
     18 H          -1.8903  -18.5276   20.9181 H       1  UNL1        0.1233
     19 C          -9.3292  -16.0292   21.2537 C.3     1  UNL1        0.0886
     20 N         -10.3899  -17.0648   21.0249 N.3     1  UNL1       -0.2679
     21 C         -11.1558  -17.6235   22.1873 C.3     1  UNL1        0.0978
     22 C         -12.4986  -17.0571   22.5425 C.3     1  UNL1        0.0224
     23 C         -13.2645  -17.6158   23.7049 C.3     1  UNL1        0.0065
     24 C         -12.6878  -18.7408   24.5121 C.3     1  UNL1        0.0277
     25 C         -11.3450  -19.3072   24.1569 C.ar    1  UNL1       -0.0073
     26 C         -10.7682  -20.4322   24.9641 C.ar    1  UNL1       -0.0015
     27 C          -9.4254  -20.9986   24.6089 C.ar    1  UNL1        0.0203
     28 C          -8.6595  -20.4399   23.4465 C.ar    1  UNL1        0.0985
     29 N          -9.2363  -19.3149   22.6393 N.ar    1  UNL1       -0.2471
     30 C         -10.5790  -18.7486   22.9945 C.ar    1  UNL1        0.0695
     31 C         -10.6846  -17.5419   19.6336 C.3     1  UNL1        0.0724
     32 C          -9.3329  -19.7111   19.1679 C.3     1  UNL1        0.0015
     33 C         -10.6492  -19.0083   19.3203 C.3     1  UNL1        0.0173
@<TRIPOS>BOND
     1    32    33    1
     2    33    31    1
     3    31    20    1
     4    20    19    1
     5     1    19    1
     6     1     2    1
     7     2     3    1
     8     3     4   ar
     9     4     5   ar
    10     5     6   ar
    11     6     7   ar
    12     7     8   ar
    13     8    12    1
    14    12    13    1
    15    13    14    1
    16    14    15    1
    17    15    16    1
    18    16    17    1
    19     4     9    1
    20     9    10    1
    21    21    20    1
    22    21    22    1
    23    22    23    1
    24    23    24    1
    25    24    25    1
    26    25    26   ar
    27    26    27   ar
    28    27    28   ar
    29    28    29   ar
    30    29    30   ar
    31    10     1    1
    32    30    21    1
    33     8     3   ar
    34    17    12    1
    35    30    25   ar
    36    15    18    1
    37    10    11    1
@<TRIPOS>MOLECULE
*****
 33 37 0 0 0
SMALL
GASTEIGER

@<TRIPOS>ATOM
      1 C          -5.6712  -16.7726   23.3560 C.3     1  UNL1        0.0749
      2 C          -6.3382  -17.7911   22.4798 C.3     1  UNL1        0.0444
      3 C          -5.5101  -18.7866   21.7227 C.ar    1  UNL1       -0.0101
      4 C          -4.0150  -18.7635   21.8418 C.ar    1  UNL1       -0.0091
      5 C          -3.1869  -19.7591   21.0846 C.ar    1  UNL1       -0.0032
      6 C          -3.8538  -20.7776   20.2084 C.ar    1  UNL1        0.0010
      7 C          -5.3489  -20.8006   20.0893 C.ar    1  UNL1        0.0142
      8 C          -6.1770  -19.8051   20.8464 C.ar    1  UNL1        0.0436
      9 C          -3.3480  -17.7451   22.7180 C.3     1  UNL1        0.0954
     10 N          -4.1761  -16.7496   23.4751 N.3     1  UNL1       -0.2934
     11 H          -3.8710  -15.8238   23.1748 H       1  UNL1        0.1236
     12 N          -7.6721  -19.8282   20.7273 N.pl3   1  UNL1       -0.3049
     13 C          -8.5198  -19.9896   21.9543 C.3     1  UNL1        0.1079
     14 C         -10.0149  -20.0126   21.8352 C.3     1  UNL1        0.0903
     15 N         -10.6623  -19.8742   20.4892 N.3     1  UNL1       -0.2946
     16 C          -9.8146  -19.7128   19.2623 C.3     1  UNL1        0.0903
     17 C          -8.3195  -19.6898   19.3814 C.3     1  UNL1        0.1079
     18 H         -11.2696  -19.0561   20.5372 H       1  UNL1        0.1233
     19 C          -6.4993  -15.7771   24.1132 C.3     1  UNL1        0.0886
     20 N          -7.9781  -15.9846   24.2544 N.3     1  UNL1       -0.2679
     21 C          -8.8724  -15.8474   23.0580 C.3     1  UNL1        0.0978
     22 C          -8.4484  -14.9958   21.8984 C.3     1  UNL1        0.0224
     23 C          -9.3427  -14.8586   20.7020 C.3     1  UNL1        0.0065
     24 C         -10.6610  -15.5731   20.6652 C.3     1  UNL1        0.0277
     25 C         -11.0851  -16.4248   21.8249 C.ar    1  UNL1       -0.0073
     26 C         -12.4035  -17.1393   21.7881 C.ar    1  UNL1       -0.0015
     27 C         -12.8276  -17.9909   22.9477 C.ar    1  UNL1        0.0203
     28 C         -11.9333  -18.1281   24.1442 C.ar    1  UNL1        0.0985
     29 N         -10.6149  -17.4136   24.1809 N.ar    1  UNL1       -0.2471
     30 C         -10.1908  -16.5620   23.0213 C.ar    1  UNL1        0.0695
     31 C          -8.5627  -16.3293   25.5922 C.3     1  UNL1        0.0724
     32 C          -7.0323  -15.8767   27.6423 C.3     1  UNL1        0.0015
     33 C          -8.2150  -15.5065   26.7972 C.3     1  UNL1        0.0173
@<TRIPOS>BOND
     1    32    33    1
     2    33    31    1
     3    31    20    1
     4    20    19    1
     5     1    19    1
     6     1     2    1
     7     2     3    1
     8     3     4   ar
     9     4     5   ar
    10     5     6   ar
    11     6     7   ar
    12     7     8   ar
    13     8    12    1
    14    12    13    1
    15    13    14    1
    16    14    15    1
    17    15    16    1
    18    16    17    1
    19     4     9    1
    20     9    10    1
    21    21    20    1
    22    21    22    1
    23    22    23    1
    24    23    24    1
    25    24    25    1
    26    25    26   ar
    27    26    27   ar
    28    27    28   ar
    29    28    29   ar
    30    29    30   ar
    31    10     1    1
    32    30    21    1
    33     8     3   ar
    34    17    12    1
    35    30    25   ar
    36    15    18    1
    37    10    11    1
@<TRIPOS>MOLECULE
*****
 33 37 0 0 0
SMALL
GASTEIGER

@<TRIPOS>ATOM
      1 C          -8.3824  -16.4219   22.2686 C.3     1  UNL1        0.0749
      2 C          -6.9340  -16.6223   22.6031 C.3     1  UNL1        0.0444
      3 C          -6.3810  -16.0886   23.8912 C.ar    1  UNL1       -0.0101
      4 C          -7.2764  -15.3545   24.8448 C.ar    1  UNL1       -0.0091
      5 C          -6.7234  -14.8207   26.1330 C.ar    1  UNL1       -0.0032
      6 C          -5.2750  -15.0211   26.4675 C.ar    1  UNL1        0.0010
      7 C          -4.3796  -15.7552   25.5139 C.ar    1  UNL1        0.0142
      8 C          -4.9326  -16.2889   24.2258 C.ar    1  UNL1        0.0436
      9 C          -8.7248  -15.1541   24.5103 C.3     1  UNL1        0.0954
     10 N          -9.2778  -15.6878   23.2222 N.3     1  UNL1       -0.2934
     11 H          -9.6598  -14.8908   22.7131 H       1  UNL1        0.1236
     12 N          -4.0371  -17.0230   23.2722 N.pl3   1  UNL1       -0.3049
     13 C          -3.0176  -16.2699   22.4700 C.3     1  UNL1        0.1079
     14 C          -2.1222  -17.0040   21.5164 C.3     1  UNL1        0.0903
     15 N          -2.2463  -18.4912   21.3650 N.3     1  UNL1       -0.2946
     16 C          -3.2658  -19.2442   22.1671 C.3     1  UNL1        0.0903
     17 C          -4.1612  -18.5101   23.1207 C.3     1  UNL1        0.1079
     18 H          -1.3362  -18.8879   21.5987 H       1  UNL1        0.1233
     19 C          -8.9355  -16.9556   20.9804 C.3     1  UNL1        0.0886
     20 N          -9.5556  -18.3208   20.9389 N.3     1  UNL1       -0.2679
     21 C          -9.9382  -19.0099   22.2151 C.3     1  UNL1        0.0978
     22 C          -9.0471  -20.0700   22.7913 C.3     1  UNL1        0.0224
     23 C          -9.4297  -20.7591   24.0676 C.3     1  UNL1        0.0065
     24 C         -10.7033  -20.3880   24.7676 C.3     1  UNL1        0.0277
     25 C         -11.5944  -19.3278   24.1915 C.ar    1  UNL1       -0.0073
     26 C         -12.8681  -18.9567   24.8915 C.ar    1  UNL1       -0.0015
     27 C         -13.7591  -17.8966   24.3154 C.ar    1  UNL1        0.0203
     28 C         -13.3765  -17.2075   23.0391 C.ar    1  UNL1        0.0985
     29 N         -12.1029  -17.5786   22.3390 N.ar    1  UNL1       -0.2471
     30 C         -11.2119  -18.6387   22.9152 C.ar    1  UNL1        0.0695
     31 C          -9.7932  -18.9969   19.6211 C.3     1  UNL1        0.0724
     32 C          -9.0782  -20.9074   18.0122 C.3     1  UNL1        0.0015
     33 C          -8.7187  -19.8461   19.0094 C.3     1  UNL1        0.0173
@<TRIPOS>BOND
     1    32    33    1
     2    33    31    1
     3    31    20    1
     4    20    19    1
     5     1    19    1
     6     1     2    1
     7     2     3    1
     8     3     4   ar
     9     4     5   ar
    10     5     6   ar
    11     6     7   ar
    12     7     8   ar
    13     8    12    1
    14    12    13    1
    15    13    14    1
    16    14    15    1
    17    15    16    1
    18    16    17    1
    19     4     9    1
    20     9    10    1
    21    21    20    1
    22    21    22    1
    23    22    23    1
    24    23    24    1
    25    24    25    1
    26    25    26   ar
    27    26    27   ar
    28    27    28   ar
    29    28    29   ar
    30    29    30   ar
    31    10     1    1
    32    30    21    1
    33     8     3   ar
    34    17    12    1
    35    30    25   ar
    36    15    18    1
    37    10    11    1
@<TRIPOS>MOLECULE
*****
 33 37 0 0 0
SMALL
GASTEIGER

@<TRIPOS>ATOM
      1 C          -7.9443  -17.7960   21.8208 C.3     1  UNL1        0.0749
      2 C          -6.5414  -17.4859   22.2514 C.3     1  UNL1        0.0444
      3 C          -6.2981  -16.7029   23.5074 C.ar    1  UNL1       -0.0101
      4 C          -7.4579  -16.2301   24.3329 C.ar    1  UNL1       -0.0091
      5 C          -7.2146  -15.4470   25.5890 C.ar    1  UNL1       -0.0032
      6 C          -5.8116  -15.1370   26.0196 C.ar    1  UNL1        0.0010
      7 C          -4.6519  -15.6099   25.1942 C.ar    1  UNL1        0.0142
      8 C          -4.8951  -16.3928   23.9381 C.ar    1  UNL1        0.0436
      9 C          -8.8608  -16.5401   23.9023 C.3     1  UNL1        0.0954
     10 N          -9.1041  -17.3231   22.6462 N.3     1  UNL1       -0.2934
     11 H          -9.6773  -16.7364   22.0399 H       1  UNL1        0.1236
     12 N          -3.7354  -16.8657   23.1126 N.pl3   1  UNL1       -0.3049
     13 C          -2.9542  -15.8871   22.2866 C.3     1  UNL1        0.1079
     14 C          -1.7945  -16.3600   21.4612 C.3     1  UNL1        0.0903
     15 N          -1.4159  -17.8115   21.4617 N.3     1  UNL1       -0.2946
     16 C          -2.1970  -18.7900   22.2877 C.3     1  UNL1        0.0903
     17 C          -3.3567  -18.3171   23.1132 C.3     1  UNL1        0.1079
     18 H          -0.4484  -17.8633   21.7806 H       1  UNL1        0.1233
     19 C          -8.1876  -18.5790   20.5646 C.3     1  UNL1        0.0886
     20 N          -9.5893  -18.9168   20.1511 N.3     1  UNL1       -0.2679
     21 C         -10.7276  -18.0327   20.5667 C.3     1  UNL1        0.0978
     22 C         -11.1660  -16.9069   19.6778 C.3     1  UNL1        0.0224
     23 C         -12.3043  -16.0228   20.0934 C.3     1  UNL1        0.0065
     24 C         -13.0042  -16.2646   21.3979 C.3     1  UNL1        0.0277
     25 C         -12.5657  -17.3905   22.2868 C.ar    1  UNL1       -0.0073
     26 C         -13.2656  -17.6323   23.5913 C.ar    1  UNL1       -0.0015
     27 C         -12.8271  -18.7582   24.4802 C.ar    1  UNL1        0.0203
     28 C         -11.6889  -19.6423   24.0646 C.ar    1  UNL1        0.0985
     29 N         -10.9890  -19.4005   22.7601 N.ar    1  UNL1       -0.2471
     30 C         -11.4275  -18.2746   21.8712 C.ar    1  UNL1        0.0695
     31 C          -9.8528  -20.1387   19.3218 C.3     1  UNL1        0.0724
     32 C          -9.1979  -21.4654   17.1862 C.3     1  UNL1        0.0015
     33 C          -8.8025  -20.6459   18.3787 C.3     1  UNL1        0.0173
@<TRIPOS>BOND
     1    32    33    1
     2    33    31    1
     3    31    20    1
     4    20    19    1
     5     1    19    1
     6     1     2    1
     7     2     3    1
     8     3     4   ar
     9     4     5   ar
    10     5     6   ar
    11     6     7   ar
    12     7     8   ar
    13     8    12    1
    14    12    13    1
    15    13    14    1
    16    14    15    1
    17    15    16    1
    18    16    17    1
    19     4     9    1
    20     9    10    1
    21    21    20    1
    22    21    22    1
    23    22    23    1
    24    23    24    1
    25    24    25    1
    26    25    26   ar
    27    26    27   ar
    28    27    28   ar
    29    28    29   ar
    30    29    30   ar
    31    10     1    1
    32    30    21    1
    33     8     3   ar
    34    17    12    1
    35    30    25   ar
    36    15    18    1
    37    10    11    1
