@<TRIPOS>MOLECULE
*****
 28 31 0 0 0
SMALL
GASTEIGER

@<TRIPOS>ATOM
      1 C          -4.3914  -17.6879   22.3638 C.ar    1  UNL1        0.0001
      2 C          -5.7380  -18.2315   21.9882 C.ar    1  UNL1        0.0000
      3 C          -6.9530  -17.8328   22.7723 C.ar    1  UNL1        0.0001
      4 C          -6.8214  -16.8904   23.9319 C.ar    1  UNL1        0.0029
      5 C          -8.0365  -16.4917   24.7159 C.ar    1  UNL1        0.0338
      6 C          -7.9049  -15.5494   25.8755 C.ar    1  UNL1        0.1336
      7 O          -9.1198  -15.1507   26.6596 O.3     1  UNL1       -0.5055
      8 C          -6.5582  -15.0057   26.2510 C.ar    1  UNL1        0.0366
      9 C          -5.3432  -15.4044   25.4670 C.ar    1  UNL1        0.0031
     10 C          -5.4748  -16.3468   24.3074 C.ar    1  UNL1        0.0002
     11 C          -4.2598  -16.7455   23.5233 C.ar    1  UNL1        0.0000
     12 H          -9.9610  -15.4903   26.4250 H       1  UNL1        0.2922
     13 O           0.0112  -16.4003   19.9226 O.3     1  UNL1       -0.5055
     14 C          -0.9750  -17.4427   20.3591 C.ar    1  UNL1        0.1337
     15 C          -0.7462  -18.8839   20.0116 C.ar    1  UNL1        0.0366
     16 C          -1.7324  -19.9264   20.4481 C.ar    1  UNL1        0.0031
     17 C          -2.9475  -19.5277   21.2322 C.ar    1  UNL1        0.0002
     18 C          -3.1763  -18.0866   21.5797 C.ar    1  UNL1        0.0030
     19 C          -2.1901  -17.0441   21.1432 C.ar    1  UNL1        0.0366
     20 H           0.7702  -16.6493   19.4329 H       1  UNL1        0.2922
     21 C          -9.3831  -17.0354   24.3404 C.ar    1  UNL1        0.0059
     22 C          -9.8827  -18.3019   24.9699 C.ar    1  UNL1        0.0003
     23 C         -11.2294  -18.8456   24.5943 C.ar    1  UNL1        0.0031
     24 C         -12.0763  -18.1227   23.5893 C.ar    1  UNL1        0.0366
     25 C         -11.5767  -16.8562   22.9598 C.ar    1  UNL1        0.1337
     26 O         -12.4236  -16.1334   21.9547 O.3     1  UNL1       -0.5055
     27 C         -10.2301  -16.3125   23.3353 C.ar    1  UNL1        0.0367
     28 H         -13.2648  -16.4730   21.7201 H       1  UNL1        0.2922
@<TRIPOS>BOND
     1    13    14    1
     2    14    15   ar
     3    15    16   ar
     4    16    17   ar
     5    17    18   ar
     6    18     1    1
     7     1     2   ar
     8     2     3   ar
     9     3     4   ar
    10     4     5   ar
    11     5    21    1
    12    21    22   ar
    13    22    23   ar
    14    23    24   ar
    15    24    25   ar
    16    25    26    1
    17    25    27   ar
    18     5     6   ar
    19     6     7    1
    20     6     8   ar
    21     8     9   ar
    22     9    10   ar
    23    10    11   ar
    24    18    19   ar
    25    19    14   ar
    26    11     1   ar
    27    10     4   ar
    28    27    21   ar
    29    13    20    1
    30    26    28    1
    31     7    12    1
@<TRIPOS>MOLECULE
*****
 28 31 0 0 0
SMALL
GASTEIGER

@<TRIPOS>ATOM
      1 C         -10.4410  -18.0072   23.3554 C.ar    1  UNL1        0.0001
      2 C          -9.7251  -18.9900   22.4770 C.ar    1  UNL1        0.0000
      3 C          -8.2457  -18.8660   22.2632 C.ar    1  UNL1        0.0001
      4 C          -7.4820  -17.7592   22.9279 C.ar    1  UNL1        0.0029
      5 C          -6.0024  -17.6352   22.7142 C.ar    1  UNL1        0.0338
      6 C          -5.2388  -16.5284   23.3789 C.ar    1  UNL1        0.1336
      7 O          -3.7593  -16.4044   23.1651 O.3     1  UNL1       -0.5055
      8 C          -5.9547  -15.5456   24.2573 C.ar    1  UNL1        0.0366
      9 C          -7.4342  -15.6696   24.4710 C.ar    1  UNL1        0.0031
     10 C          -8.1978  -16.7764   23.8063 C.ar    1  UNL1        0.0002
     11 C          -9.6773  -16.9004   24.0200 C.ar    1  UNL1        0.0000
     12 H          -3.3121  -17.0183   22.6164 H       1  UNL1        0.2922
     13 O         -14.4771  -18.8206   26.5252 O.3     1  UNL1       -0.5055
     14 C         -13.9386  -18.5379   25.1540 C.ar    1  UNL1        0.1337
     15 C         -14.8795  -18.3792   23.9967 C.ar    1  UNL1        0.0366
     16 C         -14.3410  -18.0964   22.6255 C.ar    1  UNL1        0.0031
     17 C         -12.8614  -17.9725   22.4118 C.ar    1  UNL1        0.0002
     18 C         -11.9205  -18.1312   23.5691 C.ar    1  UNL1        0.0030
     19 C         -12.4591  -18.4139   24.9403 C.ar    1  UNL1        0.0366
     20 H         -15.4013  -18.8981   26.6587 H       1  UNL1        0.2922
     21 C          -5.2866  -18.6180   21.8358 C.ar    1  UNL1        0.0059
     22 C          -5.9881  -19.2159   20.6524 C.ar    1  UNL1        0.0003
     23 C          -5.2722  -20.1988   19.7739 C.ar    1  UNL1        0.0031
     24 C          -3.8549  -20.5837   20.0789 C.ar    1  UNL1        0.0366
     25 C          -3.1534  -19.9857   21.2623 C.ar    1  UNL1        0.1337
     26 O          -1.7361  -20.3706   21.5673 O.3     1  UNL1       -0.5055
     27 C          -3.8692  -19.0029   22.1407 C.ar    1  UNL1        0.0367
     28 H          -1.2889  -20.9845   21.0186 H       1  UNL1        0.2922
@<TRIPOS>BOND
     1    13    14    1
     2    14    15   ar
     3    15    16   ar
     4    16    17   ar
     5    17    18   ar
     6    18     1    1
     7     1     2   ar
     8     2     3   ar
     9     3     4   ar
    10     4     5   ar
    11     5    21    1
    12    21    22   ar
    13    22    23   ar
    14    23    24   ar
    15    24    25   ar
    16    25    26    1
    17    25    27   ar
    18     5     6   ar
    19     6     7    1
    20     6     8   ar
    21     8     9   ar
    22     9    10   ar
    23    10    11   ar
    24    18    19   ar
    25    19    14   ar
    26    11     1   ar
    27    10     4   ar
    28    27    21   ar
    29    13    20    1
    30    26    28    1
    31     7    12    1
@<TRIPOS>MOLECULE
*****
 28 31 0 0 0
SMALL
GASTEIGER

@<TRIPOS>ATOM
      1 C          -4.6262  -18.7848   20.5088 C.ar    1  UNL1        0.0001
      2 C          -5.1340  -18.7051   21.9180 C.ar    1  UNL1        0.0000
      3 C          -6.5919  -18.9133   22.2027 C.ar    1  UNL1        0.0001
      4 C          -7.5420  -19.2013   21.0783 C.ar    1  UNL1        0.0029
      5 C          -9.0000  -19.4095   21.3631 C.ar    1  UNL1        0.0338
      6 C          -9.9501  -19.6974   20.2387 C.ar    1  UNL1        0.1336
      7 O         -11.4080  -19.9057   20.5235 O.3     1  UNL1       -0.5055
      8 C          -9.4423  -19.7771   18.8295 C.ar    1  UNL1        0.0366
      9 C          -7.9844  -19.5689   18.5447 C.ar    1  UNL1        0.0031
     10 C          -7.0343  -19.2810   19.6692 C.ar    1  UNL1        0.0002
     11 C          -5.5764  -19.0727   19.3844 C.ar    1  UNL1        0.0000
     12 H         -11.7252  -19.8559   21.4037 H       1  UNL1        0.2922
     13 O          -0.8042  -17.7166   17.1546 O.3     1  UNL1       -0.5055
     14 C          -1.2573  -18.0424   18.5469 C.ar    1  UNL1        0.1337
     15 C          -0.2524  -18.1601   19.6544 C.ar    1  UNL1        0.0366
     16 C          -0.7055  -18.4860   21.0467 C.ar    1  UNL1        0.0031
     17 C          -2.1635  -18.6942   21.3315 C.ar    1  UNL1        0.0002
     18 C          -3.1683  -18.5766   20.2240 C.ar    1  UNL1        0.0030
     19 C          -2.7152  -18.2507   18.8317 C.ar    1  UNL1        0.0366
     20 H           0.1065  -17.5865   16.9767 H       1  UNL1        0.2922
     21 C          -9.5077  -19.3298   22.7723 C.ar    1  UNL1        0.0059
     22 C         -10.0475  -18.0348   23.3029 C.ar    1  UNL1        0.0003
     23 C         -10.5553  -17.9551   24.7122 C.ar    1  UNL1        0.0031
     24 C         -10.5233  -19.1704   25.5907 C.ar    1  UNL1        0.0366
     25 C          -9.9835  -20.4654   25.0601 C.ar    1  UNL1        0.1337
     26 O          -9.9515  -21.6808   25.9387 O.3     1  UNL1       -0.5055
     27 C          -9.4757  -20.5452   23.6509 C.ar    1  UNL1        0.0367
     28 H         -10.2686  -21.6310   26.8189 H       1  UNL1        0.2922
@<TRIPOS>BOND
     1    13    14    1
     2    14    15   ar
     3    15    16   ar
     4    16    17   ar
     5    17    18   ar
     6    18     1    1
     7     1     2   ar
     8     2     3   ar
     9     3     4   ar
    10     4     5   ar
    11     5    21    1
    12    21    22   ar
    13    22    23   ar
    14    23    24   ar
    15    24    25   ar
    16    25    26    1
    17    25    27   ar
    18     5     6   ar
    19     6     7    1
    20     6     8   ar
    21     8     9   ar
    22     9    10   ar
    23    10    11   ar
    24    18    19   ar
    25    19    14   ar
    26    11     1   ar
    27    10     4   ar
    28    27    21   ar
    29    13    20    1
    30    26    28    1
    31     7    12    1
@<TRIPOS>MOLECULE
*****
 28 31 0 0 0
SMALL
GASTEIGER

@<TRIPOS>ATOM
      1 C           1.2555    0.8945   23.7839 C.ar    1  UNL1        0.0001
      2 C           2.3228   -0.1594   23.7772 C.ar    1  UNL1        0.0000
      3 C           2.8947   -0.6393   22.4763 C.ar    1  UNL1        0.0001
      4 C           2.3993   -0.0653   21.1820 C.ar    1  UNL1        0.0029
      5 C           2.9713   -0.5453   19.8810 C.ar    1  UNL1        0.0338
      6 C           2.4759    0.0287   18.5867 C.ar    1  UNL1        0.1336
      7 O           3.0479   -0.4512   17.2858 O.3     1  UNL1       -0.5055
      8 C           1.4086    1.0827   18.5935 C.ar    1  UNL1        0.0366
      9 C           0.8366    1.5626   19.8944 C.ar    1  UNL1        0.0031
     10 C           1.3320    0.9886   21.1887 C.ar    1  UNL1        0.0002
     11 C           0.7601    1.4685   22.4897 C.ar    1  UNL1        0.0000
     12 H           3.7146   -1.1095   17.2816 H       1  UNL1        0.2922
     13 O           1.5649    1.3131   28.9540 O.3     1  UNL1       -0.5055
     14 C           0.8382    1.5837   27.6699 C.ar    1  UNL1        0.1337
     15 C          -0.4604    2.3343   27.6869 C.ar    1  UNL1        0.0366
     16 C          -1.1871    2.6049   26.4029 C.ar    1  UNL1        0.0031
     17 C          -0.6151    2.1250   25.1019 C.ar    1  UNL1        0.0002
     18 C           0.6835    1.3744   25.0849 C.ar    1  UNL1        0.0030
     19 C           1.4101    1.1038   26.3690 C.ar    1  UNL1        0.0366
     20 H           1.2076    1.6129   29.7666 H       1  UNL1        0.2922
     21 C           4.0386   -1.5992   19.8743 C.ar    1  UNL1        0.0059
     22 C           5.4742   -1.2140   20.0761 C.ar    1  UNL1        0.0003
     23 C           6.5416   -2.2680   20.0694 C.ar    1  UNL1        0.0031
     24 C           6.1733   -3.7070   19.8609 C.ar    1  UNL1        0.0366
     25 C           4.7377   -4.0922   19.6590 C.ar    1  UNL1        0.1337
     26 O           4.3694   -5.5312   19.4505 O.3     1  UNL1       -0.5055
     27 C           3.6704   -3.0383   19.6657 C.ar    1  UNL1        0.0367
     28 H           5.0362   -6.1895   19.4463 H       1  UNL1        0.2922
@<TRIPOS>BOND
     1    13    14    1
     2    14    15   ar
     3    15    16   ar
     4    16    17   ar
     5    17    18   ar
     6    18     1    1
     7     1     2   ar
     8     2     3   ar
     9     3     4   ar
    10     4     5   ar
    11     5    21    1
    12    21    22   ar
    13    22    23   ar
    14    23    24   ar
    15    24    25   ar
    16    25    26    1
    17    25    27   ar
    18     5     6   ar
    19     6     7    1
    20     6     8   ar
    21     8     9   ar
    22     9    10   ar
    23    10    11   ar
    24    18    19   ar
    25    19    14   ar
    26    11     1   ar
    27    10     4   ar
    28    27    21   ar
    29    13    20    1
    30    26    28    1
    31     7    12    1
@<TRIPOS>MOLECULE
*****
 28 31 0 0 0
SMALL
GASTEIGER

@<TRIPOS>ATOM
      1 C           2.8348   -0.7979   21.7589 C.ar    1  UNL1        0.0001
      2 C           3.1611   -0.9918   23.2100 C.ar    1  UNL1        0.0000
      3 C           2.4684   -0.1640   24.2516 C.ar    1  UNL1        0.0001
      4 C           1.4494    0.8577   23.8420 C.ar    1  UNL1        0.0029
      5 C           0.7567    1.6855   24.8836 C.ar    1  UNL1        0.0338
      6 C          -0.2623    2.7072   24.4740 C.ar    1  UNL1        0.1336
      7 O          -0.9550    3.5350   25.5156 O.3     1  UNL1       -0.5055
      8 C          -0.5886    2.9010   23.0228 C.ar    1  UNL1        0.0366
      9 C           0.1040    2.0732   21.9812 C.ar    1  UNL1        0.0031
     10 C           1.1231    1.0515   22.3908 C.ar    1  UNL1        0.0002
     11 C           1.8158    0.2237   21.3493 C.ar    1  UNL1        0.0000
     12 H          -0.7512    3.4139   26.4221 H       1  UNL1        0.2922
     13 O           4.0889   -1.6486   16.7886 O.3     1  UNL1       -0.5055
     14 C           4.1545   -2.0511   18.2321 C.ar    1  UNL1        0.1337
     15 C           4.9128   -3.2814   18.6339 C.ar    1  UNL1        0.0366
     16 C           4.9784   -3.6838   20.0775 C.ar    1  UNL1        0.0031
     17 C           4.2857   -2.8560   21.1191 C.ar    1  UNL1        0.0002
     18 C           3.5275   -1.6258   20.7172 C.ar    1  UNL1        0.0030
     19 C           3.4618   -1.2233   19.2737 C.ar    1  UNL1        0.0366
     20 H           4.5215   -2.1657   16.1379 H       1  UNL1        0.2922
     21 C           1.0830    1.4916   26.3348 C.ar    1  UNL1        0.0059
     22 C           2.2497    2.2113   26.9438 C.ar    1  UNL1        0.0003
     23 C           2.5761    2.0174   28.3950 C.ar    1  UNL1        0.0031
     24 C           1.7357    1.1038   29.2371 C.ar    1  UNL1        0.0366
     25 C           0.5690    0.3842   28.6281 C.ar    1  UNL1        0.1337
     26 O          -0.2714   -0.5293   29.4702 O.3     1  UNL1       -0.5055
     27 C           0.2426    0.5781   27.1770 C.ar    1  UNL1        0.0367
     28 H          -0.0675   -0.6505   30.3767 H       1  UNL1        0.2922
@<TRIPOS>BOND
     1    13    14    1
     2    14    15   ar
     3    15    16   ar
     4    16    17   ar
     5    17    18   ar
     6    18     1    1
     7     1     2   ar
     8     2     3   ar
     9     3     4   ar
    10     4     5   ar
    11     5    21    1
    12    21    22   ar
    13    22    23   ar
    14    23    24   ar
    15    24    25   ar
    16    25    26    1
    17    25    27   ar
    18     5     6   ar
    19     6     7    1
    20     6     8   ar
    21     8     9   ar
    22     9    10   ar
    23    10    11   ar
    24    18    19   ar
    25    19    14   ar
    26    11     1   ar
    27    10     4   ar
    28    27    21   ar
    29    13    20    1
    30    26    28    1
    31     7    12    1
@<TRIPOS>MOLECULE
*****
 28 31 0 0 0
SMALL
GASTEIGER

@<TRIPOS>ATOM
      1 C           4.0458   -1.1260   25.6270 C.ar    1  UNL1        0.0001
      2 C           3.5654   -1.0802   24.2068 C.ar    1  UNL1        0.0000
      3 C           4.2541   -1.8988   23.1554 C.ar    1  UNL1        0.0001
      4 C           5.4232   -2.7633   23.5242 C.ar    1  UNL1        0.0029
      5 C           6.1119   -3.5819   22.4728 C.ar    1  UNL1        0.0338
      6 C           7.2809   -4.4464   22.8416 C.ar    1  UNL1        0.1336
      7 O           7.9696   -5.2650   21.7902 O.3     1  UNL1       -0.5055
      8 C           7.7613   -4.4921   24.2619 C.ar    1  UNL1        0.0366
      9 C           7.0726   -3.6735   25.3133 C.ar    1  UNL1        0.0031
     10 C           5.9035   -2.8090   24.9445 C.ar    1  UNL1        0.0002
     11 C           5.2149   -1.9904   25.9958 C.ar    1  UNL1        0.0000
     12 H           7.6696   -5.2365   20.9030 H       1  UNL1        0.2922
     13 O           1.7939   -0.7724   30.2965 O.3     1  UNL1       -0.5055
     14 C           2.2312   -0.1305   29.0132 C.ar    1  UNL1        0.1337
     15 C           1.9797    1.3300   28.7814 C.ar    1  UNL1        0.0366
     16 C           2.4170    1.9719   27.4981 C.ar    1  UNL1        0.0031
     17 C           3.1057    1.1532   26.4466 C.ar    1  UNL1        0.0002
     18 C           3.3571   -0.3073   26.6785 C.ar    1  UNL1        0.0030
     19 C           2.9198   -0.9491   27.9618 C.ar    1  UNL1        0.0366
     20 H           1.3637   -0.2610   30.9533 H       1  UNL1        0.2922
     21 C           5.6315   -3.5362   21.0525 C.ar    1  UNL1        0.0059
     22 C           4.3458   -4.2095   20.6736 C.ar    1  UNL1        0.0003
     23 C           3.8654   -4.1637   19.2532 C.ar    1  UNL1        0.0031
     24 C           4.6708   -3.4446   18.2120 C.ar    1  UNL1        0.0366
     25 C           5.9565   -2.7713   18.5909 C.ar    1  UNL1        0.1337
     26 O           6.7618   -2.0522   17.5497 O.3     1  UNL1       -0.5055
     27 C           6.4368   -2.8171   20.0112 C.ar    1  UNL1        0.0367
     28 H           6.4617   -2.0236   16.6625 H       1  UNL1        0.2922
@<TRIPOS>BOND
     1    13    14    1
     2    14    15   ar
     3    15    16   ar
     4    16    17   ar
     5    17    18   ar
     6    18     1    1
     7     1     2   ar
     8     2     3   ar
     9     3     4   ar
    10     4     5   ar
    11     5    21    1
    12    21    22   ar
    13    22    23   ar
    14    23    24   ar
    15    24    25   ar
    16    25    26    1
    17    25    27   ar
    18     5     6   ar
    19     6     7    1
    20     6     8   ar
    21     8     9   ar
    22     9    10   ar
    23    10    11   ar
    24    18    19   ar
    25    19    14   ar
    26    11     1   ar
    27    10     4   ar
    28    27    21   ar
    29    13    20    1
    30    26    28    1
    31     7    12    1
@<TRIPOS>MOLECULE
*****
 28 31 0 0 0
SMALL
GASTEIGER

@<TRIPOS>ATOM
      1 C          -9.1873  -18.2939   22.1432 C.ar    1  UNL1        0.0001
      2 C          -8.0187  -17.4648   22.5871 C.ar    1  UNL1        0.0000
      3 C          -6.6280  -17.8483   22.1763 C.ar    1  UNL1        0.0001
      4 C          -6.4058  -19.0609   21.3217 C.ar    1  UNL1        0.0029
      5 C          -5.0150  -19.4443   20.9110 C.ar    1  UNL1        0.0338
      6 C          -4.7928  -20.6569   20.0564 C.ar    1  UNL1        0.1336
      7 O          -3.4021  -21.0404   19.6457 O.3     1  UNL1       -0.5055
      8 C          -5.9615  -21.4860   19.6125 C.ar    1  UNL1        0.0366
      9 C          -7.3522  -21.1025   20.0233 C.ar    1  UNL1        0.0031
     10 C          -7.5744  -19.8899   20.8779 C.ar    1  UNL1        0.0002
     11 C          -8.9651  -19.5064   21.2886 C.ar    1  UNL1        0.0000
     12 H          -2.6721  -20.5225   19.9229 H       1  UNL1        0.2922
     13 O         -13.2396  -18.8255   25.3520 O.3     1  UNL1       -0.5055
     14 C         -12.6042  -18.1763   24.1584 C.ar    1  UNL1        0.1337
     15 C         -13.3597  -17.1435   23.3755 C.ar    1  UNL1        0.0366
     16 C         -12.7243  -16.4943   22.1818 C.ar    1  UNL1        0.0031
     17 C         -11.3335  -16.8777   21.7711 C.ar    1  UNL1        0.0002
     18 C         -10.5781  -17.9104   22.5540 C.ar    1  UNL1        0.0030
     19 C         -11.2135  -18.5597   23.7476 C.ar    1  UNL1        0.0366
     20 H         -14.1084  -18.5860   25.6086 H       1  UNL1        0.2922
     21 C          -3.8464  -18.6153   21.3549 C.ar    1  UNL1        0.0059
     22 C          -3.6361  -18.3356   22.8135 C.ar    1  UNL1        0.0003
     23 C          -2.4675  -17.5065   23.2573 C.ar    1  UNL1        0.0031
     24 C          -1.5092  -16.9571   22.2426 C.ar    1  UNL1        0.0366
     25 C          -1.7195  -17.2367   20.7839 C.ar    1  UNL1        0.1337
     26 O          -0.7613  -16.6872   19.7692 O.3     1  UNL1       -0.5055
     27 C          -2.8881  -18.0658   20.3401 C.ar    1  UNL1        0.0367
     28 H          -0.0313  -16.1693   20.0464 H       1  UNL1        0.2922
@<TRIPOS>BOND
     1    13    14    1
     2    14    15   ar
     3    15    16   ar
     4    16    17   ar
     5    17    18   ar
     6    18     1    1
     7     1     2   ar
     8     2     3   ar
     9     3     4   ar
    10     4     5   ar
    11     5    21    1
    12    21    22   ar
    13    22    23   ar
    14    23    24   ar
    15    24    25   ar
    16    25    26    1
    17    25    27   ar
    18     5     6   ar
    19     6     7    1
    20     6     8   ar
    21     8     9   ar
    22     9    10   ar
    23    10    11   ar
    24    18    19   ar
    25    19    14   ar
    26    11     1   ar
    27    10     4   ar
    28    27    21   ar
    29    13    20    1
    30    26    28    1
    31     7    12    1
@<TRIPOS>MOLECULE
*****
 28 31 0 0 0
SMALL
GASTEIGER

@<TRIPOS>ATOM
      1 C           3.4139   -0.3158   25.1734 C.ar    1  UNL1        0.0001
      2 C           4.2838   -1.1785   24.3080 C.ar    1  UNL1        0.0000
      3 C           4.0242   -1.2647   22.8331 C.ar    1  UNL1        0.0001
      4 C           2.8948   -0.4882   22.2237 C.ar    1  UNL1        0.0029
      5 C           2.6352   -0.5745   20.7488 C.ar    1  UNL1        0.0338
      6 C           1.5058    0.2020   20.1394 C.ar    1  UNL1        0.1336
      7 O           1.2462    0.1158   18.6646 O.3     1  UNL1       -0.5055
      8 C           0.6358    1.0647   21.0049 C.ar    1  UNL1        0.0366
      9 C           0.8954    1.1510   22.4797 C.ar    1  UNL1        0.0031
     10 C           2.0249    0.3745   23.0891 C.ar    1  UNL1        0.0002
     11 C           2.2844    0.4607   24.5639 C.ar    1  UNL1        0.0000
     12 H           1.7896   -0.4232   18.1240 H       1  UNL1        0.2922
     13 O           1.7363   -0.7596   30.0712 O.3     1  UNL1       -0.5055
     14 C           2.8346   -0.4514   29.0972 C.ar    1  UNL1        0.1337
     15 C           4.1925   -0.0570   29.5980 C.ar    1  UNL1        0.0366
     16 C           5.2908    0.2512   28.6240 C.ar    1  UNL1        0.0031
     17 C           5.0312    0.1649   27.1490 C.ar    1  UNL1        0.0002
     18 C           3.6734   -0.2295   26.6483 C.ar    1  UNL1        0.0030
     19 C           2.5751   -0.5377   27.6223 C.ar    1  UNL1        0.0366
     20 H           1.8984   -0.7057   30.9925 H       1  UNL1        0.2922
     21 C           3.5051   -1.4372   19.8834 C.ar    1  UNL1        0.0059
     22 C           3.3184   -2.9256   19.8795 C.ar    1  UNL1        0.0003
     23 C           4.1883   -3.7883   19.0140 C.ar    1  UNL1        0.0031
     24 C           5.2449   -3.1627   18.1526 C.ar    1  UNL1        0.0366
     25 C           5.4317   -1.6744   18.1565 C.ar    1  UNL1        0.1337
     26 O           6.4883   -1.0488   17.2951 O.3     1  UNL1       -0.5055
     27 C           4.5618   -0.8116   19.0219 C.ar    1  UNL1        0.0367
     28 H           7.0317   -1.5877   16.7545 H       1  UNL1        0.2922
@<TRIPOS>BOND
     1    13    14    1
     2    14    15   ar
     3    15    16   ar
     4    16    17   ar
     5    17    18   ar
     6    18     1    1
     7     1     2   ar
     8     2     3   ar
     9     3     4   ar
    10     4     5   ar
    11     5    21    1
    12    21    22   ar
    13    22    23   ar
    14    23    24   ar
    15    24    25   ar
    16    25    26    1
    17    25    27   ar
    18     5     6   ar
    19     6     7    1
    20     6     8   ar
    21     8     9   ar
    22     9    10   ar
    23    10    11   ar
    24    18    19   ar
    25    19    14   ar
    26    11     1   ar
    27    10     4   ar
    28    27    21   ar
    29    13    20    1
    30    26    28    1
    31     7    12    1
@<TRIPOS>MOLECULE
*****
 28 31 0 0 0
SMALL
GASTEIGER

@<TRIPOS>ATOM
      1 C          -1.4740    3.0171   26.3200 C.ar    1  UNL1        0.0001
      2 C          -2.8542    3.5480   26.5710 C.ar    1  UNL1        0.0000
      3 C          -3.6929    4.0288   25.4241 C.ar    1  UNL1        0.0001
      4 C          -3.1514    3.9786   24.0262 C.ar    1  UNL1        0.0029
      5 C          -3.9902    4.4594   22.8793 C.ar    1  UNL1        0.0338
      6 C          -3.4486    4.4093   21.4813 C.ar    1  UNL1        0.1336
      7 O          -4.2874    4.8900   20.3344 O.3     1  UNL1       -0.5055
      8 C          -2.0683    3.8783   21.2303 C.ar    1  UNL1        0.0366
      9 C          -1.2296    3.3976   22.3772 C.ar    1  UNL1        0.0031
     10 C          -1.7712    3.4477   23.7751 C.ar    1  UNL1        0.0002
     11 C          -0.9325    2.9670   24.9220 C.ar    1  UNL1        0.0000
     12 H          -5.1496    5.2217   20.4912 H       1  UNL1        0.2922
     13 O          -0.1052   -0.7522   29.6243 O.3     1  UNL1       -0.5055
     14 C           0.0492    0.6517   29.1190 C.ar    1  UNL1        0.1337
     15 C           1.0423    1.5748   29.7607 C.ar    1  UNL1        0.0366
     16 C           1.1967    2.9786   29.2554 C.ar    1  UNL1        0.0031
     17 C           0.3579    3.4594   28.1085 C.ar    1  UNL1        0.0002
     18 C          -0.6352    2.5363   27.4669 C.ar    1  UNL1        0.0030
     19 C          -0.7896    1.1325   27.9722 C.ar    1  UNL1        0.0366
     20 H           0.4187   -1.0525   30.3407 H       1  UNL1        0.2922
     21 C          -5.3704    4.9903   23.1303 C.ar    1  UNL1        0.0059
     22 C          -5.5959    6.4688   23.2448 C.ar    1  UNL1        0.0003
     23 C          -6.9763    6.9997   23.4958 C.ar    1  UNL1        0.0031
     24 C          -8.1309    6.0521   23.6324 C.ar    1  UNL1        0.0366
     25 C          -7.9054    4.5736   23.5180 C.ar    1  UNL1        0.1337
     26 O          -9.0601    3.6260   23.6545 O.3     1  UNL1       -0.5055
     27 C          -6.5252    4.0427   23.2669 C.ar    1  UNL1        0.0367
     28 H          -9.9223    3.9576   23.8114 H       1  UNL1        0.2922
@<TRIPOS>BOND
     1    13    14    1
     2    14    15   ar
     3    15    16   ar
     4    16    17   ar
     5    17    18   ar
     6    18     1    1
     7     1     2   ar
     8     2     3   ar
     9     3     4   ar
    10     4     5   ar
    11     5    21    1
    12    21    22   ar
    13    22    23   ar
    14    23    24   ar
    15    24    25   ar
    16    25    26    1
    17    25    27   ar
    18     5     6   ar
    19     6     7    1
    20     6     8   ar
    21     8     9   ar
    22     9    10   ar
    23    10    11   ar
    24    18    19   ar
    25    19    14   ar
    26    11     1   ar
    27    10     4   ar
    28    27    21   ar
    29    13    20    1
    30    26    28    1
    31     7    12    1
