@<TRIPOS>MOLECULE
*****
 25 28 0 0 0
SMALL
GASTEIGER

@<TRIPOS>ATOM
      1 C          -5.6239  -16.0837   23.9438 C.3     1  UNL1        0.1118
      2 C          -5.4750  -15.5584   25.3409 C.3     1  UNL1        0.0261
      3 C          -6.6676  -15.4923   26.2482 C.3     1  UNL1        0.0068
      4 C          -8.0090  -15.9515   25.7585 C.3     1  UNL1        0.0277
      5 C          -8.1578  -16.4768   24.3614 C.2     1  UNL1       -0.0059
      6 C          -6.9652  -16.5429   23.4541 C.2     1  UNL1        0.0724
      7 N          -7.4149  -17.1039   22.1375 N.2     1  UNL1       -0.2523
      8 C          -8.8854  -17.3845   22.2313 C.2     1  UNL1        0.0628
      9 C          -9.8657  -17.9429   21.2428 C.3     1  UNL1        0.0726
     10 C         -11.3052  -18.1138   21.6287 C.2     1  UNL1       -0.0084
     11 C         -11.7643  -17.7262   23.0031 C.2     1  UNL1        0.0538
     12 CL        -13.2037  -17.8970   23.3890 Cl      1  UNL1       -0.0826
     13 C         -10.7840  -17.1678   23.9917 C.2     1  UNL1        0.0120
     14 C          -9.3445  -16.9970   23.6058 C.2     1  UNL1        0.0119
     15 O          -4.3215  -18.7242   23.3683 O.2     1  UNL1       -0.2701
     16 C          -3.7801  -17.4701   22.7486 C.2     1  UNL1        0.2483
     17 N          -4.4312  -16.1498   23.0363 N.am    1  UNL1       -0.2972
     18 H          -4.0759  -15.3266   22.6296 H       1  UNL1        0.1500
     19 C          -2.5875  -17.5362   21.8412 C.ar    1  UNL1        0.0808
     20 C          -1.8247  -16.2870   21.5128 C.ar    1  UNL1        0.0068
     21 C          -0.6322  -16.3532   20.6054 C.ar    1  UNL1        0.0003
     22 C          -0.2024  -17.6684   20.0263 C.ar    1  UNL1        0.0023
     23 C          -0.9651  -18.9176   20.3547 C.ar    1  UNL1        0.0298
     24 C          -2.1577  -18.8515   21.2621 C.ar    1  UNL1        0.1444
     25 F          -2.9204  -20.1006   21.5905 F       1  UNL1       -0.2040
@<TRIPOS>BOND
     1    15    16    2
     2    16    17   am
     3     1    17    1
     4     1     2    1
     5     2     3    1
     6     3     4    1
     7     4     5    1
     8     5     6    2
     9     6     7    1
    10     7     8    2
    11     8     9    1
    12     9    10    1
    13    10    11    2
    14    11    12    1
    15    11    13    1
    16    13    14    2
    17    16    19    1
    18    19    20   ar
    19    20    21   ar
    20    21    22   ar
    21    22    23   ar
    22    23    24   ar
    23    24    25    1
    24     6     1    1
    25    14     8    1
    26    24    19   ar
    27    14     5    1
    28    17    18    1
@<TRIPOS>MOLECULE
*****
 25 28 0 0 0
SMALL
GASTEIGER

@<TRIPOS>ATOM
      1 C         -12.1822   -6.0289   19.0174 C.3     1  UNL1        0.1118
      2 C         -10.7570   -6.4946   18.9720 C.3     1  UNL1        0.0261
      3 C          -9.6604   -5.5227   18.6515 C.3     1  UNL1        0.0068
      4 C          -9.9888   -4.0852   18.3764 C.3     1  UNL1        0.0277
      5 C         -11.4139   -3.6195   18.4218 C.2     1  UNL1       -0.0059
      6 C         -12.5106   -4.5914   18.7423 C.2     1  UNL1        0.0724
      7 N         -13.8125   -3.8467   18.7153 N.2     1  UNL1       -0.2523
      8 C         -13.5204   -2.4146   18.3780 C.2     1  UNL1        0.0628
      9 C         -14.4126   -1.2203   18.2126 C.3     1  UNL1        0.0726
     10 C         -13.8225    0.1146   17.8659 C.2     1  UNL1       -0.0084
     11 C         -12.3401    0.2549   17.6845 C.2     1  UNL1        0.0538
     12 CL        -11.7500    1.5897   17.3377 Cl      1  UNL1       -0.0826
     13 C         -11.4479   -0.9395   17.8499 C.2     1  UNL1        0.0120
     14 C         -12.0380   -2.2742   18.1966 C.2     1  UNL1        0.0119
     15 O         -14.0146   -6.9922   16.8462 O.2     1  UNL1       -0.2701
     16 C         -14.1952   -7.4824   18.2523 C.2     1  UNL1        0.2483
     17 N         -13.2789   -7.0007   19.3380 N.am    1  UNL1       -0.2972
     18 H         -13.3974   -7.3225   20.2608 H       1  UNL1        0.1500
     19 C         -15.2919   -8.4542   18.5728 C.ar    1  UNL1        0.0808
     20 C         -15.2290   -9.8569   18.0449 C.ar    1  UNL1        0.0068
     21 C         -16.3258  -10.8287   18.3654 C.ar    1  UNL1        0.0003
     22 C         -17.4854  -10.3979   19.2138 C.ar    1  UNL1        0.0023
     23 C         -17.5482   -8.9953   19.7417 C.ar    1  UNL1        0.0298
     24 C         -16.4515   -8.0234   19.4212 C.ar    1  UNL1        0.1444
     25 F         -16.5144   -6.6208   19.9491 F       1  UNL1       -0.2040
@<TRIPOS>BOND
     1    15    16    2
     2    16    17   am
     3     1    17    1
     4     1     2    1
     5     2     3    1
     6     3     4    1
     7     4     5    1
     8     5     6    2
     9     6     7    1
    10     7     8    2
    11     8     9    1
    12     9    10    1
    13    10    11    2
    14    11    12    1
    15    11    13    1
    16    13    14    2
    17    16    19    1
    18    19    20   ar
    19    20    21   ar
    20    21    22   ar
    21    22    23   ar
    22    23    24   ar
    23    24    25    1
    24     6     1    1
    25    14     8    1
    26    24    19   ar
    27    14     5    1
    28    17    18    1
@<TRIPOS>MOLECULE
*****
 25 28 0 0 0
SMALL
GASTEIGER

@<TRIPOS>ATOM
      1 C          -7.1515  -16.7246   24.0359 C.3     1  UNL1        0.1118
      2 C          -6.7698  -15.6651   25.0267 C.3     1  UNL1        0.0261
      3 C          -5.3418  -15.2191   25.1351 C.3     1  UNL1        0.0068
      4 C          -4.2955  -15.8326   24.2526 C.3     1  UNL1        0.0277
      5 C          -4.6771  -16.8921   23.2618 C.2     1  UNL1       -0.0059
      6 C          -6.1051  -17.3381   23.1534 C.2     1  UNL1        0.0724
      7 N          -6.1815  -18.3946   22.0913 N.2     1  UNL1       -0.2523
      8 C          -4.8006  -18.6015   21.5433 C.2     1  UNL1        0.0628
      9 C          -4.2697  -19.5155   20.4790 C.3     1  UNL1        0.0726
     10 C          -2.8090  -19.5009   20.1380 C.2     1  UNL1       -0.0084
     11 C          -1.8792  -18.5723   20.8614 C.2     1  UNL1        0.0538
     12 CL         -0.4186  -18.5576   20.5205 Cl      1  UNL1       -0.0826
     13 C          -2.4102  -17.6583   21.9258 C.2     1  UNL1        0.0120
     14 C          -3.8709  -17.6729   22.2666 C.2     1  UNL1        0.0119
     15 O          -8.8057  -15.8986   21.6735 O.2     1  UNL1       -0.2701
     16 C          -9.4067  -16.7576   22.7463 C.2     1  UNL1        0.2483
     17 N          -8.5796  -17.1707   23.9275 N.am    1  UNL1       -0.2972
     18 H          -8.9740  -17.7345   24.6316 H       1  UNL1        0.1500
     19 C         -10.8347  -17.2037   22.6379 C.ar    1  UNL1        0.0808
     20 C         -11.5437  -17.7487   23.8422 C.ar    1  UNL1        0.0068
     21 C         -12.9717  -18.1948   23.7337 C.ar    1  UNL1        0.0003
     22 C         -13.6908  -18.0957   22.4211 C.ar    1  UNL1        0.0023
     23 C         -12.9819  -17.5507   21.2168 C.ar    1  UNL1        0.0298
     24 C         -11.5538  -17.1046   21.3252 C.ar    1  UNL1        0.1444
     25 F         -10.8448  -16.5596   20.1209 F       1  UNL1       -0.2040
@<TRIPOS>BOND
     1    15    16    2
     2    16    17   am
     3     1    17    1
     4     1     2    1
     5     2     3    1
     6     3     4    1
     7     4     5    1
     8     5     6    2
     9     6     7    1
    10     7     8    2
    11     8     9    1
    12     9    10    1
    13    10    11    2
    14    11    12    1
    15    11    13    1
    16    13    14    2
    17    16    19    1
    18    19    20   ar
    19    20    21   ar
    20    21    22   ar
    21    22    23   ar
    22    23    24   ar
    23    24    25    1
    24     6     1    1
    25    14     8    1
    26    24    19   ar
    27    14     5    1
    28    17    18    1
@<TRIPOS>MOLECULE
*****
 25 28 0 0 0
SMALL
GASTEIGER

@<TRIPOS>ATOM
      1 C          -7.1670  -16.6725   24.0626 C.3     1  UNL1        0.1118
      2 C          -6.7073  -15.5727   24.9732 C.3     1  UNL1        0.0261
      3 C          -5.2669  -15.1542   24.9760 C.3     1  UNL1        0.0068
      4 C          -4.2861  -15.8355   24.0683 C.3     1  UNL1        0.0277
      5 C          -4.7458  -16.9353   23.1577 C.2     1  UNL1       -0.0059
      6 C          -6.1862  -17.3537   23.1549 C.2     1  UNL1        0.0724
      7 N          -6.3452  -18.4611   22.1555 N.2     1  UNL1       -0.2523
      8 C          -5.0031  -18.7269   21.5408 C.2     1  UNL1        0.0628
      9 C          -4.5533  -19.7059   20.4971 C.3     1  UNL1        0.0726
     10 C          -3.1150  -19.7418   20.0727 C.2     1  UNL1       -0.0084
     11 C          -2.1265  -18.7988   20.6921 C.2     1  UNL1        0.0538
     12 CL         -0.6882  -18.8347   20.2677 Cl      1  UNL1       -0.0826
     13 C          -2.5763  -17.8198   21.7358 C.2     1  UNL1        0.0120
     14 C          -4.0146  -17.7839   22.1602 C.2     1  UNL1        0.0119
     15 O          -8.8696  -16.1716   21.6439 O.2     1  UNL1       -0.2701
     16 C          -9.4588  -16.8405   22.8504 C.2     1  UNL1        0.2483
     17 N          -8.6074  -17.0910   24.0597 N.am    1  UNL1       -0.2972
     18 H          -8.9941  -17.5300   24.8515 H       1  UNL1        0.1500
     19 C         -10.8992  -17.2590   22.8474 C.ar    1  UNL1        0.0808
     20 C         -11.7803  -16.9064   21.6858 C.ar    1  UNL1        0.0068
     21 C         -13.2207  -17.3249   21.6829 C.ar    1  UNL1        0.0003
     22 C         -13.7801  -18.0960   22.8415 C.ar    1  UNL1        0.0023
     23 C         -12.8990  -18.4487   24.0031 C.ar    1  UNL1        0.0298
     24 C         -11.4585  -18.0302   24.0061 C.ar    1  UNL1        0.1444
     25 F         -10.5774  -18.3829   25.1677 F       1  UNL1       -0.2040
@<TRIPOS>BOND
     1    15    16    2
     2    16    17   am
     3     1    17    1
     4     1     2    1
     5     2     3    1
     6     3     4    1
     7     4     5    1
     8     5     6    2
     9     6     7    1
    10     7     8    2
    11     8     9    1
    12     9    10    1
    13    10    11    2
    14    11    12    1
    15    11    13    1
    16    13    14    2
    17    16    19    1
    18    19    20   ar
    19    20    21   ar
    20    21    22   ar
    21    22    23   ar
    22    23    24   ar
    23    24    25    1
    24     6     1    1
    25    14     8    1
    26    24    19   ar
    27    14     5    1
    28    17    18    1
