@<TRIPOS>MOLECULE
*****
 31 35 0 0 0
SMALL
GASTEIGER

@<TRIPOS>ATOM
      1 C         -14.8779   -2.8923   18.5779 C.ar    1  UNL1        0.1510
      2 N         -15.4786   -4.2563   18.7479 N.ar    1  UNL1       -0.2293
      3 C         -14.6248   -5.4781   18.5803 C.ar    1  UNL1        0.0824
      4 C         -13.1702   -5.3360   18.2427 C.ar    1  UNL1        0.0378
      5 C         -12.5695   -3.9721   18.0727 C.ar    1  UNL1        0.0845
      6 C         -13.4234   -2.7503   18.2403 C.ar    1  UNL1        0.1302
      7 N         -12.5587   -1.5457   18.0133 N.ar    1  UNL1       -0.2210
      8 C         -11.1705   -2.0231   17.7055 C.ar    1  UNL1        0.1798
      9 N         -11.1771   -3.5227   17.7421 N.ar    1  UNL1       -0.2912
     10 C         -15.2254   -6.8421   18.7503 C.2     1  UNL1        0.0241
     11 C         -14.3820   -8.0645   18.5402 C.2     1  UNL1        0.0968
     12 N         -14.9827   -9.4285   18.7102 N.2     1  UNL1       -0.2413
     13 C         -16.4268   -9.5699   19.0903 C.2     1  UNL1        0.1141
     14 C         -17.2703   -8.3473   19.3004 C.2     1  UNL1        0.0860
     15 N         -18.7120   -8.1752   19.6770 N.2     1  UNL1       -0.2463
     16 C         -19.0024   -6.7049   19.7398 C.2     1  UNL1        0.0947
     17 C         -17.7400   -5.9683   19.4019 C.2     1  UNL1        0.0047
     18 C         -16.6696   -6.9834   19.1304 C.3     1  UNL1        0.0904
     19 C         -16.4152   -1.8047   16.2425 C.3     1  UNL1        0.0241
     20 C         -16.5005   -1.1268   17.5779 C.3     1  UNL1        0.1039
     21 C         -17.3544    0.0950   17.7456 C.3     1  UNL1        0.1618
     22 O         -17.4397    0.7729   19.0809 O.3     1  UNL1       -0.3502
     23 C         -16.6711    0.2291   20.2486 C.3     1  UNL1        0.1636
     24 C         -15.8172   -0.9927   20.0809 C.3     1  UNL1        0.1242
     25 N         -15.7319   -1.6706   18.7455 N.pl3   1  UNL1       -0.2886
     26 C          -9.9983   -4.4159   17.4921 C.3     1  UNL1        0.2171
     27 C          -8.9859   -4.0473   16.4485 C.3     1  UNL1        0.0510
     28 S          -9.8319   -5.6778   18.2858 S.O2    1  UNL1        0.0099
     29 C          -9.6655   -6.9397   19.0795 C.3     1  UNL1        0.1782
     30 O         -10.2534   -6.4837   17.0930 O.2     1  UNL1       -0.1712
     31 O          -9.4104   -4.8719   19.4787 O.2     1  UNL1       -0.1712
@<TRIPOS>BOND
     1    20    19    1
     2    20    21    1
     3    21    22    1
     4    22    23    1
     5    23    24    1
     6    24    25    1
     7    25     1    1
     8     1     2   ar
     9     2     3   ar
    10     3    10    1
    11    10    11    2
    12    11    12    1
    13    12    13    2
    14    13    14    1
    15    14    15    2
    16    15    16    1
    17    16    17    2
    18    17    18    1
    19     3     4   ar
    20     4     5   ar
    21     5     6   ar
    22     6     7   ar
    23     7     8   ar
    24     8     9   ar
    25     9    26    1
    26    26    27    1
    27    26    28    1
    28    28    29    1
    29    28    30    2
    30    28    31    2
    31    25    20    1
    32     6     1   ar
    33    18    10    1
    34     9     5   ar
    35    18    14    1
@<TRIPOS>MOLECULE
*****
 31 35 0 0 0
SMALL
GASTEIGER

@<TRIPOS>ATOM
      1 C          -6.7129  -16.9180   23.8665 C.ar    1  UNL1        0.1510
      2 N          -7.9351  -17.2515   23.0633 N.ar    1  UNL1       -0.2293
      3 C          -7.8027  -18.0114   21.7769 C.ar    1  UNL1        0.0824
      4 C          -6.4483  -18.4379   21.2936 C.ar    1  UNL1        0.0378
      5 C          -5.2261  -18.1044   22.0968 C.ar    1  UNL1        0.0845
      6 C          -5.3584  -17.3445   23.3833 C.ar    1  UNL1        0.1302
      7 N          -3.9846  -17.1607   23.9565 N.ar    1  UNL1       -0.2210
      8 C          -3.0031  -17.8070   23.0243 C.ar    1  UNL1        0.1798
      9 N          -3.7705  -18.3903   21.8749 N.ar    1  UNL1       -0.2912
     10 C          -9.0249  -18.3449   20.9736 C.2     1  UNL1        0.0241
     11 C          -8.9720  -19.4356   19.9453 C.2     1  UNL1        0.0968
     12 N         -10.1941  -19.7691   19.1420 N.2     1  UNL1       -0.2413
     13 C         -11.4692  -19.0118   19.3672 C.2     1  UNL1        0.1141
     14 C         -11.5221  -17.9211   20.3956 C.2     1  UNL1        0.0860
     15 N         -12.6290  -17.0095   20.8357 N.2     1  UNL1       -0.2463
     16 C         -12.0910  -16.1125   21.9109 C.2     1  UNL1        0.0947
     17 C         -10.6515  -16.4699   22.1353 C.2     1  UNL1        0.0047
     18 C         -10.3000  -17.5877   21.1988 C.3     1  UNL1        0.0904
     19 C          -9.2025  -17.1877   25.5187 C.3     1  UNL1        0.0241
     20 C          -8.0900  -16.2929   25.9791 C.3     1  UNL1        0.1039
     21 C          -8.2223  -15.5330   27.2655 C.3     1  UNL1        0.1618
     22 O          -7.1099  -14.6382   27.7259 O.3     1  UNL1       -0.3502
     23 C          -5.8652  -14.5034   26.8999 C.3     1  UNL1        0.1636
     24 C          -5.7329  -15.2634   25.6134 C.3     1  UNL1        0.1242
     25 N          -6.8453  -16.1581   25.1530 N.pl3   1  UNL1       -0.2886
     26 C          -3.1849  -19.1296   20.7085 C.3     1  UNL1        0.2171
     27 C          -3.6187  -20.5356   20.4174 C.3     1  UNL1        0.0510
     28 S          -2.1654  -18.4628   19.8332 S.O2    1  UNL1        0.0099
     29 C          -1.1460  -17.7960   18.9579 C.3     1  UNL1        0.1782
     30 O          -3.2526  -17.6686   19.1720 O.2     1  UNL1       -0.1712
     31 O          -1.0783  -19.2570   20.4944 O.2     1  UNL1       -0.1712
@<TRIPOS>BOND
     1    20    19    1
     2    20    21    1
     3    21    22    1
     4    22    23    1
     5    23    24    1
     6    24    25    1
     7    25     1    1
     8     1     2   ar
     9     2     3   ar
    10     3    10    1
    11    10    11    2
    12    11    12    1
    13    12    13    2
    14    13    14    1
    15    14    15    2
    16    15    16    1
    17    16    17    2
    18    17    18    1
    19     3     4   ar
    20     4     5   ar
    21     5     6   ar
    22     6     7   ar
    23     7     8   ar
    24     8     9   ar
    25     9    26    1
    26    26    27    1
    27    26    28    1
    28    28    29    1
    29    28    30    2
    30    28    31    2
    31    25    20    1
    32     6     1   ar
    33    18    10    1
    34     9     5   ar
    35    18    14    1
@<TRIPOS>MOLECULE
*****
 31 35 0 0 0
SMALL
GASTEIGER

@<TRIPOS>ATOM
      1 C         -15.6846   -6.5055   18.7112 C.ar    1  UNL1        0.1510
      2 N         -16.3355   -5.1935   19.0354 N.ar    1  UNL1       -0.2293
      3 C         -15.5048   -3.9487   19.1359 C.ar    1  UNL1        0.0824
      4 C         -14.0231   -4.0157   18.9123 C.ar    1  UNL1        0.0378
      5 C         -13.3721   -5.3277   18.5881 C.ar    1  UNL1        0.0845
      6 C         -14.2029   -6.5725   18.4876 C.ar    1  UNL1        0.1302
      7 N         -13.2886   -7.7144   18.1557 N.ar    1  UNL1       -0.2210
      8 C         -11.8928   -7.1753   18.0511 C.ar    1  UNL1        0.1798
      9 N         -11.9444   -5.7002   18.3184 N.ar    1  UNL1       -0.2912
     10 C         -16.1557   -2.6367   19.4601 C.2     1  UNL1        0.0241
     11 C         -17.5300   -2.6093   20.0603 C.2     1  UNL1        0.0968
     12 N         -18.1810   -1.2973   20.3845 N.2     1  UNL1       -0.2413
     13 C         -17.4574   -0.0127   20.1084 C.2     1  UNL1        0.1141
     14 C         -16.0830   -0.0401   19.5082 C.2     1  UNL1        0.0860
     15 N         -15.1322    1.0557   19.1272 N.2     1  UNL1       -0.2463
     16 C         -13.8936    0.4210   18.5675 C.2     1  UNL1        0.0947
     17 C         -14.0790   -1.0672   18.6027 C.2     1  UNL1        0.0047
     18 C         -15.4322   -1.3521   19.1840 C.3     1  UNL1        0.0904
     19 C         -17.2792   -7.0483   16.2287 C.3     1  UNL1        0.0241
     20 C         -17.3127   -8.0218   17.3695 C.3     1  UNL1        0.1039
     21 C         -18.1435   -9.2666   17.2691 C.3     1  UNL1        0.1618
     22 O         -18.1770  -10.2401   18.4098 O.3     1  UNL1       -0.3502
     23 C         -17.3797   -9.9687   19.6510 C.3     1  UNL1        0.1636
     24 C         -16.5489   -8.7238   19.7514 C.3     1  UNL1        0.1242
     25 N         -16.5154   -7.7504   18.6107 N.pl3   1  UNL1       -0.2886
     26 C         -10.7738   -4.7623   18.3163 C.3     1  UNL1        0.2171
     27 C          -9.6020   -5.0232   19.2157 C.3     1  UNL1        0.0510
     28 S         -10.7749   -3.5635   17.4147 S.O2    1  UNL1        0.0099
     29 C         -10.7760   -2.3647   16.5131 C.3     1  UNL1        0.1782
     30 O         -10.8166   -2.6623   18.6130 O.2     1  UNL1       -0.1712
     31 O         -10.7332   -4.4647   16.2163 O.2     1  UNL1       -0.1712
@<TRIPOS>BOND
     1    20    19    1
     2    20    21    1
     3    21    22    1
     4    22    23    1
     5    23    24    1
     6    24    25    1
     7    25     1    1
     8     1     2   ar
     9     2     3   ar
    10     3    10    1
    11    10    11    2
    12    11    12    1
    13    12    13    2
    14    13    14    1
    15    14    15    2
    16    15    16    1
    17    16    17    2
    18    17    18    1
    19     3     4   ar
    20     4     5   ar
    21     5     6   ar
    22     6     7   ar
    23     7     8   ar
    24     8     9   ar
    25     9    26    1
    26    26    27    1
    27    26    28    1
    28    28    29    1
    29    28    30    2
    30    28    31    2
    31    25    20    1
    32     6     1   ar
    33    18    10    1
    34     9     5   ar
    35    18    14    1
@<TRIPOS>MOLECULE
*****
 31 35 0 0 0
SMALL
GASTEIGER

@<TRIPOS>ATOM
      1 C         -15.6333   -6.4218   18.6574 C.ar    1  UNL1        0.1510
      2 N         -16.1704   -5.0509   18.9442 N.ar    1  UNL1       -0.2293
      3 C         -15.2359   -3.8802   19.0212 C.ar    1  UNL1        0.0824
      4 C         -13.7642   -4.0803   18.8114 C.ar    1  UNL1        0.0378
      5 C         -13.2271   -5.4511   18.5246 C.ar    1  UNL1        0.0845
      6 C         -14.1616   -6.6219   18.4476 C.ar    1  UNL1        0.1302
      7 N         -13.3475   -7.8463   18.1511 N.ar    1  UNL1       -0.2210
      8 C         -11.9097   -7.4323   18.0448 C.ar    1  UNL1        0.1798
      9 N         -11.8352   -5.9520   18.2757 N.ar    1  UNL1       -0.2912
     10 C         -15.7730   -2.5093   19.3080 C.2     1  UNL1        0.0241
     11 C         -14.9164   -1.3022   19.0649 C.2     1  UNL1        0.0968
     12 N         -15.4535    0.0687   19.3518 N.2     1  UNL1       -0.2413
     13 C         -16.8472    0.2324   19.8817 C.2     1  UNL1        0.1141
     14 C         -17.7037   -0.9747   20.1248 C.2     1  UNL1        0.0860
     15 N         -19.1053   -1.1240   20.6379 N.2     1  UNL1       -0.2463
     16 C         -19.4345   -2.5872   20.6683 C.2     1  UNL1        0.0947
     17 C         -18.2363   -3.3422   20.1738 C.2     1  UNL1        0.0047
     18 C         -17.1666   -2.3456   19.8380 C.3     1  UNL1        0.0904
     19 C         -17.0536   -7.0411   16.0884 C.3     1  UNL1        0.0241
     20 C         -17.2781   -7.9021   17.2959 C.3     1  UNL1        0.1039
     21 C         -18.2127   -9.0728   17.2191 C.3     1  UNL1        0.1618
     22 O         -18.4373   -9.9338   18.4266 O.3     1  UNL1       -0.3502
     23 C         -17.7272   -9.6242   19.7111 C.3     1  UNL1        0.1636
     24 C         -16.7925   -8.4535   19.7880 C.3     1  UNL1        0.1242
     25 N         -16.5680   -7.5925   18.5804 N.pl3   1  UNL1       -0.2886
     26 C         -10.5880   -5.1189   18.2603 C.3     1  UNL1        0.2171
     27 C          -9.4916   -5.3916   19.2471 C.3     1  UNL1        0.0510
     28 S         -10.4370   -4.0131   17.2581 S.O2    1  UNL1        0.0099
     29 C         -10.2861   -2.9073   16.2559 C.3     1  UNL1        0.1782
     30 O         -10.5023   -5.0145   16.1433 O.2     1  UNL1       -0.1712
     31 O         -10.3717   -3.0117   18.3729 O.2     1  UNL1       -0.1712
@<TRIPOS>BOND
     1    20    19    1
     2    20    21    1
     3    21    22    1
     4    22    23    1
     5    23    24    1
     6    24    25    1
     7    25     1    1
     8     1     2   ar
     9     2     3   ar
    10     3    10    1
    11    10    11    2
    12    11    12    1
    13    12    13    2
    14    13    14    1
    15    14    15    2
    16    15    16    1
    17    16    17    2
    18    17    18    1
    19     3     4   ar
    20     4     5   ar
    21     5     6   ar
    22     6     7   ar
    23     7     8   ar
    24     8     9   ar
    25     9    26    1
    26    26    27    1
    27    26    28    1
    28    28    29    1
    29    28    30    2
    30    28    31    2
    31    25    20    1
    32     6     1   ar
    33    18    10    1
    34     9     5   ar
    35    18    14    1
@<TRIPOS>MOLECULE
*****
 31 35 0 0 0
SMALL
GASTEIGER

@<TRIPOS>ATOM
      1 C          -0.7908    3.2552   23.9249 C.ar    1  UNL1        0.1510
      2 N          -2.0841    3.9511   24.2306 N.ar    1  UNL1       -0.2293
      3 C          -2.7332    3.7726   25.5710 C.ar    1  UNL1        0.0824
      4 C          -2.0891    2.8982   26.6058 C.ar    1  UNL1        0.0378
      5 C          -0.7959    2.2024   26.3001 C.ar    1  UNL1        0.0845
      6 C          -0.1468    2.3809   24.9596 C.ar    1  UNL1        0.1302
      7 N           1.1176    1.5740   24.9457 N.ar    1  UNL1       -0.2210
      8 C           1.2499    0.8967   26.2776 C.ar    1  UNL1        0.1798
      9 N           0.0673    1.2851   27.1146 N.ar    1  UNL1       -0.2912
     10 C          -4.0264    4.4684   25.8768 C.2     1  UNL1        0.0241
     11 C          -4.1889    5.2165   27.1666 C.2     1  UNL1        0.0968
     12 N          -5.4822    5.9123   27.4723 N.2     1  UNL1       -0.2413
     13 C          -6.6129    5.8599   26.4881 C.2     1  UNL1        0.1141
     14 C          -6.4504    5.1117   25.1982 C.2     1  UNL1        0.0860
     15 N          -7.3817    4.8871   24.0440 N.2     1  UNL1       -0.2463
     16 C          -6.6641    4.0525   23.0249 C.2     1  UNL1        0.0947
     17 C          -5.2892    3.7613   23.5494 C.2     1  UNL1        0.0047
     18 C          -5.1572    4.4159   24.8926 C.3     1  UNL1        0.0904
     19 C           1.1539    5.4972   23.4865 C.3     1  UNL1        0.0241
     20 C           0.8306    4.5547   22.3653 C.3     1  UNL1        0.1039
     21 C           1.4796    4.7332   21.0248 C.3     1  UNL1        0.1618
     22 O           1.1563    3.7908   19.9035 O.3     1  UNL1       -0.3502
     23 C           0.1840    2.6699   20.1226 C.3     1  UNL1        0.1636
     24 C          -0.4651    2.4914   21.4631 C.3     1  UNL1        0.1242
     25 N          -0.1417    3.4338   22.5844 N.pl3   1  UNL1       -0.2886
     26 C          -0.2044    0.8352   28.5195 C.3     1  UNL1        0.2171
     27 C          -1.4273    0.0213   28.8232 C.3     1  UNL1        0.0510
     28 S           0.7468    1.1991   29.6207 S.O2    1  UNL1        0.0099
     29 C           1.6980    1.5631   30.7220 C.3     1  UNL1        0.1782
     30 O           1.0238   -0.2552   29.8621 O.2     1  UNL1       -0.1712
     31 O           0.4698    2.6534   29.3794 O.2     1  UNL1       -0.1712
@<TRIPOS>BOND
     1    20    19    1
     2    20    21    1
     3    21    22    1
     4    22    23    1
     5    23    24    1
     6    24    25    1
     7    25     1    1
     8     1     2   ar
     9     2     3   ar
    10     3    10    1
    11    10    11    2
    12    11    12    1
    13    12    13    2
    14    13    14    1
    15    14    15    2
    16    15    16    1
    17    16    17    2
    18    17    18    1
    19     3     4   ar
    20     4     5   ar
    21     5     6   ar
    22     6     7   ar
    23     7     8   ar
    24     8     9   ar
    25     9    26    1
    26    26    27    1
    27    26    28    1
    28    28    29    1
    29    28    30    2
    30    28    31    2
    31    25    20    1
    32     6     1   ar
    33    18    10    1
    34     9     5   ar
    35    18    14    1
@<TRIPOS>MOLECULE
*****
 31 35 0 0 0
SMALL
GASTEIGER

@<TRIPOS>ATOM
      1 C           2.3569    0.1926   30.0559 C.ar    1  UNL1        0.1510
      2 N           2.4941    0.4900   31.5197 N.ar    1  UNL1       -0.2293
      3 C           3.6931   -0.0007   32.2756 C.ar    1  UNL1        0.0824
      4 C           4.7550   -0.7889   31.5677 C.ar    1  UNL1        0.0378
      5 C           4.6179   -1.0863   30.1039 C.ar    1  UNL1        0.0845
      6 C           3.4188   -0.5956   29.3480 C.ar    1  UNL1        0.1302
      7 N           3.5560   -1.0400   27.9219 N.ar    1  UNL1       -0.2210
      8 C           4.8399   -1.8054   27.7965 C.ar    1  UNL1        0.1798
      9 N           5.4962   -1.8341   29.1450 N.ar    1  UNL1       -0.2912
     10 C           3.8303    0.2966   33.7395 C.2     1  UNL1        0.0241
     11 C           4.5969   -0.6391   34.6263 C.2     1  UNL1        0.0968
     12 N           4.7341   -0.3418   36.0901 N.2     1  UNL1       -0.2413
     13 C           4.1047    0.8915   36.6670 C.2     1  UNL1        0.1141
     14 C           3.3381    1.8273   35.7802 C.2     1  UNL1        0.0860
     15 N           2.6139    3.1103   36.0623 N.2     1  UNL1       -0.2463
     16 C           2.0291    3.6058   34.7730 C.2     1  UNL1        0.0947
     17 C           2.3919    2.6291   33.6938 C.2     1  UNL1        0.0047
     18 C           3.2009    1.5299   34.3164 C.3     1  UNL1        0.0904
     19 C           2.3384    2.9643   28.9080 C.3     1  UNL1        0.0241
     20 C           1.1486    2.0692   28.7261 C.3     1  UNL1        0.1039
     21 C          -0.0506    2.5600   27.9703 C.3     1  UNL1        0.1618
     22 O          -1.2404    1.6649   27.7884 O.3     1  UNL1       -0.3502
     23 C          -1.2312    0.2791   28.3623 C.3     1  UNL1        0.1636
     24 C          -0.0321   -0.2117   29.1181 C.3     1  UNL1        0.1242
     25 N           1.1578    0.6834   29.3000 N.pl3   1  UNL1       -0.2886
     26 C           6.8015   -2.4945   29.4764 C.3     1  UNL1        0.2171
     27 C           8.0398   -1.6652   29.6464 C.3     1  UNL1        0.0510
     28 S           6.8686   -3.9843   29.6379 S.O2    1  UNL1        0.0099
     29 C           6.9356   -5.4740   29.7994 C.3     1  UNL1        0.1782
     30 O           7.3102   -4.1191   28.2107 O.2     1  UNL1       -0.1712
     31 O           6.4270   -3.8495   31.0650 O.2     1  UNL1       -0.1712
@<TRIPOS>BOND
     1    20    19    1
     2    20    21    1
     3    21    22    1
     4    22    23    1
     5    23    24    1
     6    24    25    1
     7    25     1    1
     8     1     2   ar
     9     2     3   ar
    10     3    10    1
    11    10    11    2
    12    11    12    1
    13    12    13    2
    14    13    14    1
    15    14    15    2
    16    15    16    1
    17    16    17    2
    18    17    18    1
    19     3     4   ar
    20     4     5   ar
    21     5     6   ar
    22     6     7   ar
    23     7     8   ar
    24     8     9   ar
    25     9    26    1
    26    26    27    1
    27    26    28    1
    28    28    29    1
    29    28    30    2
    30    28    31    2
    31    25    20    1
    32     6     1   ar
    33    18    10    1
    34     9     5   ar
    35    18    14    1
@<TRIPOS>MOLECULE
*****
 31 35 0 0 0
SMALL
GASTEIGER

@<TRIPOS>ATOM
      1 C         -14.0485   -4.1141   18.5737 C.ar    1  UNL1        0.1510
      2 N         -15.1635   -5.0735   18.8680 N.ar    1  UNL1       -0.2293
      3 C         -16.5411   -4.5561   19.1582 C.ar    1  UNL1        0.0824
      4 C         -16.8039   -3.0793   19.1543 C.ar    1  UNL1        0.0378
      5 C         -15.6890   -2.1199   18.8600 C.ar    1  UNL1        0.0845
      6 C         -14.3113   -2.6373   18.5698 C.ar    1  UNL1        0.1302
      7 N         -13.4177   -1.4596   18.3163 N.ar    1  UNL1       -0.2210
      8 C         -14.2431   -0.2143   18.4500 C.ar    1  UNL1        0.1798
      9 N         -15.6469   -0.6224   18.7860 N.ar    1  UNL1       -0.2912
     10 C         -17.6561   -5.5155   19.4525 C.2     1  UNL1        0.0241
     11 C         -19.0592   -5.0093   19.6097 C.2     1  UNL1        0.0968
     12 N         -20.1742   -5.9686   19.9039 N.2     1  UNL1       -0.2413
     13 C         -19.8858   -7.4343   20.0410 C.2     1  UNL1        0.1141
     14 C         -18.4826   -7.9405   19.8838 C.2     1  UNL1        0.0860
     15 N         -17.8983   -9.3197   19.9637 N.2     1  UNL1       -0.2463
     16 C         -16.4223   -9.2128   19.7188 C.2     1  UNL1        0.0947
     17 C         -16.0943   -7.7674   19.4876 C.2     1  UNL1        0.0047
     18 C         -17.3677   -6.9811   19.5896 C.3     1  UNL1        0.0904
     19 C         -13.4884   -5.5177   15.9821 C.3     1  UNL1        0.0241
     20 C         -12.3908   -5.3334   16.9877 C.3     1  UNL1        0.1039
     21 C         -11.0131   -5.8508   16.6975 C.3     1  UNL1        0.1618
     22 O          -9.9155   -5.6665   17.7031 O.3     1  UNL1       -0.3502
     23 C         -10.1955   -4.9647   18.9989 C.3     1  UNL1        0.1636
     24 C         -11.5732   -4.4473   19.2891 C.3     1  UNL1        0.1242
     25 N         -12.6708   -4.6316   18.2835 N.pl3   1  UNL1       -0.2886
     26 C         -16.8051    0.3044   19.0088 C.3     1  UNL1        0.2171
     27 C         -17.7602    0.5940   17.8890 C.3     1  UNL1        0.0510
     28 S         -17.0082    0.9416   20.3515 S.O2    1  UNL1        0.0099
     29 C         -17.2113    1.5787   21.6941 C.3     1  UNL1        0.1782
     30 O         -17.8878   -0.2022   20.7612 O.2     1  UNL1       -0.1712
     31 O         -16.1285    2.0853   19.9417 O.2     1  UNL1       -0.1712
@<TRIPOS>BOND
     1    20    19    1
     2    20    21    1
     3    21    22    1
     4    22    23    1
     5    23    24    1
     6    24    25    1
     7    25     1    1
     8     1     2   ar
     9     2     3   ar
    10     3    10    1
    11    10    11    2
    12    11    12    1
    13    12    13    2
    14    13    14    1
    15    14    15    2
    16    15    16    1
    17    16    17    2
    18    17    18    1
    19     3     4   ar
    20     4     5   ar
    21     5     6   ar
    22     6     7   ar
    23     7     8   ar
    24     8     9   ar
    25     9    26    1
    26    26    27    1
    27    26    28    1
    28    28    29    1
    29    28    30    2
    30    28    31    2
    31    25    20    1
    32     6     1   ar
    33    18    10    1
    34     9     5   ar
    35    18    14    1
@<TRIPOS>MOLECULE
*****
 31 35 0 0 0
SMALL
GASTEIGER

@<TRIPOS>ATOM
      1 C         -15.3774   -3.1008   18.8965 C.ar    1  UNL1        0.1510
      2 N         -13.9575   -3.5493   18.7151 N.ar    1  UNL1       -0.2293
      3 C         -13.6193   -5.0095   18.7707 C.ar    1  UNL1        0.0824
      4 C         -14.7010   -6.0214   19.0077 C.ar    1  UNL1        0.0378
      5 C         -16.1208   -5.5730   19.1891 C.ar    1  UNL1        0.0845
      6 C         -16.4590   -4.1127   19.1335 C.ar    1  UNL1        0.1302
      7 N         -17.9371   -3.9707   19.3461 N.ar    1  UNL1       -0.2210
      8 C         -18.5124   -5.3434   19.5330 C.ar    1  UNL1        0.1798
      9 N         -17.3899   -6.3336   19.4360 N.ar    1  UNL1       -0.2912
     10 C         -12.1994   -5.4581   18.5893 C.2     1  UNL1        0.0241
     11 C         -11.7476   -6.7682   19.1631 C.2     1  UNL1        0.0968
     12 N         -10.3277   -7.2167   18.9817 N.2     1  UNL1       -0.2413
     13 C          -9.3598   -6.3550   18.2264 C.2     1  UNL1        0.1141
     14 C          -9.8116   -5.0448   17.6527 C.2     1  UNL1        0.0860
     15 N          -9.0894   -3.9907   16.8669 N.2     1  UNL1       -0.2463
     16 C         -10.0629   -2.8908   16.5626 C.2     1  UNL1        0.0947
     17 C         -11.3868   -3.2651   17.1604 C.2     1  UNL1        0.0047
     18 C         -11.2315   -4.5963   17.8341 C.3     1  UNL1        0.0904
     19 C         -15.4831   -1.6850   16.2537 C.3     1  UNL1        0.0241
     20 C         -15.7684   -0.9326   17.5196 C.3     1  UNL1        0.1039
     21 C         -16.1065    0.5277   17.4641 C.3     1  UNL1        0.1618
     22 O         -16.3918    1.2802   18.7299 O.3     1  UNL1       -0.3502
     23 C         -16.3390    0.5723   20.0513 C.3     1  UNL1        0.1636
     24 C         -16.0009   -0.8880   20.1068 C.3     1  UNL1        0.1242
     25 N         -15.7156   -1.6404   18.8410 N.pl3   1  UNL1       -0.2886
     26 C         -17.5145   -7.8230   19.5635 C.3     1  UNL1        0.2171
     27 C         -18.5757   -8.4142   20.4436 C.3     1  UNL1        0.0510
     28 S         -16.5781   -8.7211   18.8109 S.O2    1  UNL1        0.0099
     29 C         -15.6416   -9.6193   18.0584 C.3     1  UNL1        0.1782
     30 O         -17.1922   -8.2768   17.5166 O.2     1  UNL1       -0.1712
     31 O         -15.9640   -9.1654   20.1053 O.2     1  UNL1       -0.1712
@<TRIPOS>BOND
     1    20    19    1
     2    20    21    1
     3    21    22    1
     4    22    23    1
     5    23    24    1
     6    24    25    1
     7    25     1    1
     8     1     2   ar
     9     2     3   ar
    10     3    10    1
    11    10    11    2
    12    11    12    1
    13    12    13    2
    14    13    14    1
    15    14    15    2
    16    15    16    1
    17    16    17    2
    18    17    18    1
    19     3     4   ar
    20     4     5   ar
    21     5     6   ar
    22     6     7   ar
    23     7     8   ar
    24     8     9   ar
    25     9    26    1
    26    26    27    1
    27    26    28    1
    28    28    29    1
    29    28    30    2
    30    28    31    2
    31    25    20    1
    32     6     1   ar
    33    18    10    1
    34     9     5   ar
    35    18    14    1
@<TRIPOS>MOLECULE
*****
 31 35 0 0 0
SMALL
GASTEIGER

@<TRIPOS>ATOM
      1 C           5.1573   -0.2433   33.1483 C.ar    1  UNL1        0.1510
      2 N           4.2496    0.4967   32.2110 N.ar    1  UNL1       -0.2293
      3 C           3.3514    1.5781   32.7342 C.ar    1  UNL1        0.0824
      4 C           3.3608    1.9195   34.1947 C.ar    1  UNL1        0.0378
      5 C           4.2685    1.1796   35.1321 C.ar    1  UNL1        0.0845
      6 C           5.1667    0.0982   34.6089 C.ar    1  UNL1        0.1302
      7 N           5.9478   -0.4549   35.7639 N.ar    1  UNL1       -0.2210
      8 C           5.5323    0.2848   37.0009 C.ar    1  UNL1        0.1798
      9 N           4.4944    1.2949   36.6105 N.ar    1  UNL1       -0.2912
     10 C           2.4437    2.3181   31.7968 C.2     1  UNL1        0.0241
     11 C           2.1940    3.7837   31.9954 C.2     1  UNL1        0.0968
     12 N           1.2863    4.5237   31.0581 N.2     1  UNL1       -0.2413
     13 C           0.6284    3.7980   29.9221 C.2     1  UNL1        0.1141
     14 C           0.8781    2.3323   29.7235 C.2     1  UNL1        0.0860
     15 N           0.3735    1.3577   28.7011 N.2     1  UNL1       -0.2463
     16 C           0.9692    0.0154   29.0064 C.2     1  UNL1        0.0947
     17 C           1.8421    0.1604   30.2177 C.2     1  UNL1        0.0047
     18 C           1.7858    1.5924   30.6609 C.3     1  UNL1        0.0904
     19 C           4.3043   -3.1145   33.3177 C.3     1  UNL1        0.0241
     20 C           5.6290   -2.7603   32.7097 C.3     1  UNL1        0.1039
     21 C           6.5272   -3.8416   32.1864 C.3     1  UNL1        0.1618
     22 O           7.8519   -3.4873   31.5784 O.3     1  UNL1       -0.3502
     23 C           8.2784   -2.0518   31.4937 C.3     1  UNL1        0.1636
     24 C           7.3802   -0.9704   32.0170 C.3     1  UNL1        0.1242
     25 N           6.0555   -1.3247   32.6250 N.pl3   1  UNL1       -0.2886
     26 C           3.8038    2.2523   37.5360 C.3     1  UNL1        0.2171
     27 C           4.3085    3.6581   37.6739 C.3     1  UNL1        0.0510
     28 S           2.6086    1.8038   38.3235 S.O2    1  UNL1        0.0099
     29 C           1.4133    1.3553   39.1110 C.3     1  UNL1        0.1782
     30 O           3.5147    1.1916   39.3501 O.2     1  UNL1       -0.1712
     31 O           1.7024    2.4160   37.2968 O.2     1  UNL1       -0.1712
@<TRIPOS>BOND
     1    20    19    1
     2    20    21    1
     3    21    22    1
     4    22    23    1
     5    23    24    1
     6    24    25    1
     7    25     1    1
     8     1     2   ar
     9     2     3   ar
    10     3    10    1
    11    10    11    2
    12    11    12    1
    13    12    13    2
    14    13    14    1
    15    14    15    2
    16    15    16    1
    17    16    17    2
    18    17    18    1
    19     3     4   ar
    20     4     5   ar
    21     5     6   ar
    22     6     7   ar
    23     7     8   ar
    24     8     9   ar
    25     9    26    1
    26    26    27    1
    27    26    28    1
    28    28    29    1
    29    28    30    2
    30    28    31    2
    31    25    20    1
    32     6     1   ar
    33    18    10    1
    34     9     5   ar
    35    18    14    1
