@<TRIPOS>MOLECULE
*****
 40 44 0 0 0
SMALL
GASTEIGER

@<TRIPOS>ATOM
      1 C           1.3643    2.1237   31.1833 C.ar    1  UNL1       -0.0025
      2 C           2.2209    0.9058   31.0021 C.ar    1  UNL1       -0.0014
      3 C           2.5134    0.3929   29.6232 C.ar    1  UNL1        0.0142
      4 C           1.9493    1.0980   28.4254 C.ar    1  UNL1        0.0479
      5 C           1.0928    2.3159   28.6066 C.ar    1  UNL1        0.0142
      6 C           0.8002    2.8288   29.9855 C.ar    1  UNL1       -0.0014
      7 N           2.2419    0.5851   27.0465 N.pl3   1  UNL1       -0.3041
      8 C           3.2880   -0.4709   26.8454 C.3     1  UNL1        0.1122
      9 C           3.5805   -0.9838   25.4665 C.3     1  UNL1        0.1122
     10 N           2.8269   -0.4406   24.2887 N.pl3   1  UNL1       -0.3041
     11 C           1.7808    0.6154   24.4898 C.3     1  UNL1        0.1122
     12 C           1.4883    1.1283   25.8687 C.3     1  UNL1        0.1122
     13 C           3.1194   -0.9535   22.9098 C.ar    1  UNL1        0.0481
     14 C           2.3949   -0.3816   21.7275 C.ar    1  UNL1        0.0176
     15 C           2.6875   -0.8945   20.3486 C.ar    1  UNL1        0.0385
     16 C           3.7046   -1.9793   20.1520 C.ar    1  UNL1        0.1469
     17 C           4.4291   -2.5512   21.3343 C.ar    1  UNL1        0.0385
     18 C           4.1365   -2.0384   22.7132 C.ar    1  UNL1        0.0176
     19 O           3.9971   -2.4922   18.7731 O.3     1  UNL1       -0.4045
     20 C           4.3816   -3.9282   18.5729 C.3     1  UNL1        0.5753
     21 F           4.7662   -5.3641   18.3727 F       1  UNL1       -0.1328
     22 F           5.7668   -3.5031   18.1847 F       1  UNL1       -0.1328
     23 F           2.9965   -4.3532   18.9611 F       1  UNL1       -0.1328
     24 C           1.0718    2.6366   32.5622 C.3     1  UNL1        0.1166
     25 C           3.1447    2.5295   34.1247 C.2     1  UNL1        0.2635
     26 O           3.8091    3.6047   33.3168 O.2     1  UNL1       -0.2685
     27 N           1.7761    2.0455   33.7473 N.am    1  UNL1       -0.2957
     28 H           1.3400    1.3398   34.2775 H       1  UNL1        0.1501
     29 C           4.4120    0.5510   35.3992 C.ar    1  UNL1        0.0811
     30 N           5.0249    0.3861   36.7583 N.ar    1  UNL1       -0.2306
     31 C           4.8407    1.6717   37.5089 C.ar    1  UNL1        0.1483
     32 C           5.2409    2.0926   38.8918 C.ar    1  UNL1        0.0488
     33 C           4.9143    3.4730   39.3796 C.ar    1  UNL1        0.0622
     34 CL          5.3145    3.8940   40.7626 Cl      1  UNL1       -0.0821
     35 C           4.1875    4.4324   38.4844 C.ar    1  UNL1        0.0305
     36 C           3.7874    4.0114   37.1014 C.ar    1  UNL1        0.0824
     37 N           4.1140    2.6311   36.6137 N.ar    1  UNL1       -0.2853
     38 C           3.8490    1.9384   35.3098 C.ar    1  UNL1        0.1326
     39 C           5.2010   -0.3201   33.0821 C.3     1  UNL1        0.0067
     40 C           4.3695   -0.4890   34.3191 C.3     1  UNL1        0.0475
@<TRIPOS>BOND
     1    39    40    1
     2    40    29    1
     3    29    30   ar
     4    30    31   ar
     5    31    32   ar
     6    32    33   ar
     7    33    34    1
     8    33    35   ar
     9    35    36   ar
    10    36    37   ar
    11    37    38   ar
    12    38    25    1
    13    25    26    2
    14    25    27   am
    15    27    24    1
    16    24     1    1
    17     1     2   ar
    18     2     3   ar
    19     3     4   ar
    20     4     7    1
    21     7     8    1
    22     8     9    1
    23     9    10    1
    24    10    13    1
    25    13    14   ar
    26    14    15   ar
    27    15    16   ar
    28    16    19    1
    29    19    20    1
    30    20    21    1
    31    20    22    1
    32    20    23    1
    33    16    17   ar
    34    17    18   ar
    35    10    11    1
    36    11    12    1
    37     4     5   ar
    38     5     6   ar
    39    38    29   ar
    40     6     1   ar
    41    37    31   ar
    42    12     7    1
    43    18    13   ar
    44    27    28    1
@<TRIPOS>MOLECULE
*****
 40 44 0 0 0
SMALL
GASTEIGER

@<TRIPOS>ATOM
      1 C           1.5632    1.9147   31.3360 C.ar    1  UNL1       -0.0025
      2 C           2.5478    0.8069   31.1053 C.ar    1  UNL1       -0.0014
      3 C           2.8129    0.3169   29.7126 C.ar    1  UNL1        0.0142
      4 C           2.0933    0.9348   28.5505 C.ar    1  UNL1        0.0479
      5 C           1.1087    2.0425   28.7812 C.ar    1  UNL1        0.0142
      6 C           0.8436    2.5325   30.1739 C.ar    1  UNL1       -0.0014
      7 N           2.3584    0.4448   27.1577 N.pl3   1  UNL1       -0.3041
      8 C           3.3819   -0.6260   26.9215 C.3     1  UNL1        0.1122
      9 C           3.6470   -1.1159   25.5288 C.3     1  UNL1        0.1122
     10 N           2.8885   -0.5351   24.3723 N.pl3   1  UNL1       -0.3041
     11 C           1.8650    0.5357   24.6086 C.3     1  UNL1        0.1122
     12 C           1.5999    1.0256   26.0013 C.3     1  UNL1        0.1122
     13 C           3.1536   -1.0251   22.9796 C.ar    1  UNL1        0.0481
     14 C           2.4187   -0.4216   21.8196 C.ar    1  UNL1        0.0176
     15 C           2.6837   -0.9115   20.4269 C.ar    1  UNL1        0.0385
     16 C           3.6838   -2.0051   20.1941 C.ar    1  UNL1        0.1469
     17 C           4.4186   -2.6086   21.3541 C.ar    1  UNL1        0.0385
     18 C           4.1536   -2.1186   22.7469 C.ar    1  UNL1        0.0176
     19 O           3.9488   -2.4950   18.8014 O.3     1  UNL1       -0.4045
     20 C           4.3765   -3.9147   18.5745 C.3     1  UNL1        0.5753
     21 F           4.8043   -5.3344   18.3477 F       1  UNL1       -0.1328
     22 F           5.7484   -3.4409   18.1957 F       1  UNL1       -0.1328
     23 F           3.0047   -4.3886   18.9534 F       1  UNL1       -0.1328
     24 C           1.2981    2.4046   32.7287 C.3     1  UNL1        0.1166
     25 C           3.2684    2.5149   34.4186 C.2     1  UNL1        0.2635
     26 O           3.7323    3.7974   33.7939 O.2     1  UNL1       -0.2685
     27 N           2.0513    1.8186   33.8860 N.am    1  UNL1       -0.2957
     28 H           1.7468    0.9769   34.2960 H       1  UNL1        0.1501
     29 C           3.5604    1.8976   37.0029 C.ar    1  UNL1        0.0811
     30 N           4.6220    1.2207   37.8183 N.ar    1  UNL1       -0.2306
     31 C           5.7392    0.8336   36.8952 C.ar    1  UNL1        0.1483
     32 C           7.0464    0.1391   37.1376 C.ar    1  UNL1        0.0488
     33 C           7.9825   -0.1176   35.9940 C.ar    1  UNL1        0.0622
     34 CL          9.2899   -0.8121   36.2364 Cl      1  UNL1       -0.0821
     35 C           7.6114    0.3201   34.6082 C.ar    1  UNL1        0.0305
     36 C           6.3042    1.0146   34.3658 C.ar    1  UNL1        0.0824
     37 N           5.3681    1.2713   35.5093 N.ar    1  UNL1       -0.2853
     38 C           4.0215    1.9289   35.5759 C.ar    1  UNL1        0.1326
     39 C           1.9071    3.8827   37.2785 C.3     1  UNL1        0.0067
     40 C           2.2652    2.4468   37.5232 C.3     1  UNL1        0.0475
@<TRIPOS>BOND
     1    39    40    1
     2    40    29    1
     3    29    30   ar
     4    30    31   ar
     5    31    32   ar
     6    32    33   ar
     7    33    34    1
     8    33    35   ar
     9    35    36   ar
    10    36    37   ar
    11    37    38   ar
    12    38    25    1
    13    25    26    2
    14    25    27   am
    15    27    24    1
    16    24     1    1
    17     1     2   ar
    18     2     3   ar
    19     3     4   ar
    20     4     7    1
    21     7     8    1
    22     8     9    1
    23     9    10    1
    24    10    13    1
    25    13    14   ar
    26    14    15   ar
    27    15    16   ar
    28    16    19    1
    29    19    20    1
    30    20    21    1
    31    20    22    1
    32    20    23    1
    33    16    17   ar
    34    17    18   ar
    35    10    11    1
    36    11    12    1
    37     4     5   ar
    38     5     6   ar
    39    38    29   ar
    40     6     1   ar
    41    37    31   ar
    42    12     7    1
    43    18    13   ar
    44    27    28    1
@<TRIPOS>MOLECULE
*****
 40 44 0 0 0
SMALL
GASTEIGER

@<TRIPOS>ATOM
      1 C           7.4417   -4.8187   28.5468 C.ar    1  UNL1       -0.0025
      2 C           6.8247   -3.4910   28.2206 C.ar    1  UNL1       -0.0014
      3 C           6.2825   -2.6256   29.3193 C.ar    1  UNL1        0.0142
      4 C           6.3574   -3.0879   30.7443 C.ar    1  UNL1        0.0479
      5 C           6.9744   -4.4156   31.0706 C.ar    1  UNL1        0.0142
      6 C           7.5166   -5.2810   29.9719 C.ar    1  UNL1       -0.0014
      7 N           5.8152   -2.2226   31.8430 N.pl3   1  UNL1       -0.3041
      8 C           6.2462   -0.7899   31.9512 C.3     1  UNL1        0.1122
      9 C           5.7040    0.0755   33.0499 C.3     1  UNL1        0.1122
     10 N           4.7308   -0.4918   34.0404 N.pl3   1  UNL1       -0.3041
     11 C           4.2998   -1.9245   33.9322 C.3     1  UNL1        0.1122
     12 C           4.8420   -2.7898   32.8335 C.3     1  UNL1        0.1122
     13 C           4.1887    0.3736   35.1391 C.ar    1  UNL1        0.0481
     14 C           3.3679    1.5837   34.8049 C.ar    1  UNL1        0.0176
     15 C           2.8257    2.4491   35.9036 C.ar    1  UNL1        0.0385
     16 C           3.1043    2.1043   37.3366 C.ar    1  UNL1        0.1469
     17 C           3.9251    0.8941   37.6708 C.ar    1  UNL1        0.0385
     18 C           4.4673    0.0288   36.5721 C.ar    1  UNL1        0.0176
     19 O           2.5621    2.9697   38.4353 O.3     1  UNL1       -0.4045
     20 C           1.1300    2.8333   38.8599 C.3     1  UNL1        0.5753
     21 F          -0.3022    2.6969   39.2845 F       1  UNL1       -0.1328
     22 F           0.7371    3.8950   37.8758 F       1  UNL1       -0.1328
     23 F           1.5228    1.7716   39.8440 F       1  UNL1       -0.1328
     24 C           7.9839   -5.6840   27.4481 C.3     1  UNL1        0.1166
     25 C           8.0095   -4.5224   25.1244 C.2     1  UNL1        0.2635
     26 O           9.1158   -3.6212   25.5871 O.2     1  UNL1       -0.2685
     27 N           7.4436   -5.5537   26.0549 N.am    1  UNL1       -0.2957
     28 H           6.7175   -6.1452   25.7513 H       1  UNL1        0.1501
     29 C           8.0029   -5.0813   22.5104 C.ar    1  UNL1        0.0811
     30 N           7.1638   -4.6648   21.3389 N.ar    1  UNL1       -0.2306
     31 C           6.1114   -3.7183   21.8356 C.ar    1  UNL1        0.1483
     32 C           5.0057   -2.9881   21.1326 C.ar    1  UNL1        0.0488
     33 C           4.0888   -2.0894   21.9081 C.ar    1  UNL1        0.0622
     34 CL          2.9830   -1.3592   21.2051 Cl      1  UNL1       -0.0821
     35 C           4.2775   -1.9209   23.3866 C.ar    1  UNL1        0.0305
     36 C           5.3832   -2.6511   24.0896 C.ar    1  UNL1        0.0824
     37 N           6.3002   -3.5498   23.3141 N.ar    1  UNL1       -0.2853
     38 C           7.4691   -4.3921   23.7312 C.ar    1  UNL1        0.1326
     39 C           9.0769   -7.3639   23.1316 C.3     1  UNL1        0.0067
     40 C           9.1707   -6.0217   22.4686 C.3     1  UNL1        0.0475
@<TRIPOS>BOND
     1    39    40    1
     2    40    29    1
     3    29    30   ar
     4    30    31   ar
     5    31    32   ar
     6    32    33   ar
     7    33    34    1
     8    33    35   ar
     9    35    36   ar
    10    36    37   ar
    11    37    38   ar
    12    38    25    1
    13    25    26    2
    14    25    27   am
    15    27    24    1
    16    24     1    1
    17     1     2   ar
    18     2     3   ar
    19     3     4   ar
    20     4     7    1
    21     7     8    1
    22     8     9    1
    23     9    10    1
    24    10    13    1
    25    13    14   ar
    26    14    15   ar
    27    15    16   ar
    28    16    19    1
    29    19    20    1
    30    20    21    1
    31    20    22    1
    32    20    23    1
    33    16    17   ar
    34    17    18   ar
    35    10    11    1
    36    11    12    1
    37     4     5   ar
    38     5     6   ar
    39    38    29   ar
    40     6     1   ar
    41    37    31   ar
    42    12     7    1
    43    18    13   ar
    44    27    28    1
@<TRIPOS>MOLECULE
*****
 40 44 0 0 0
SMALL
GASTEIGER

@<TRIPOS>ATOM
      1 C           5.7798   -2.5723   25.6005 C.ar    1  UNL1       -0.0025
      2 C           4.7328   -1.5309   25.8636 C.ar    1  UNL1       -0.0014
      3 C           4.4816   -1.0571   27.2645 C.ar    1  UNL1        0.0142
      4 C           5.2773   -1.6248   28.4023 C.ar    1  UNL1        0.0479
      5 C           6.3243   -2.6662   28.1391 C.ar    1  UNL1        0.0142
      6 C           6.5755   -3.1400   26.7382 C.ar    1  UNL1       -0.0014
      7 N           5.0261   -1.1511   29.8031 N.pl3   1  UNL1       -0.3041
      8 C           6.0885   -1.3091   30.8502 C.3     1  UNL1        0.1122
      9 C           5.8373   -0.8354   32.2510 C.3     1  UNL1        0.1122
     10 N           4.5237   -0.2036   32.6049 N.pl3   1  UNL1       -0.3041
     11 C           3.4613   -0.0455   31.5578 C.3     1  UNL1        0.1122
     12 C           3.7125   -0.5193   30.1570 C.3     1  UNL1        0.1122
     13 C           4.2724    0.2702   34.0057 C.ar    1  UNL1        0.0481
     14 C           4.8685   -0.4702   35.1661 C.ar    1  UNL1        0.0176
     15 C           4.6173    0.0036   36.5670 C.ar    1  UNL1        0.0385
     16 C           3.7700    1.2178   36.8075 C.ar    1  UNL1        0.1469
     17 C           3.1739    1.9581   35.6471 C.ar    1  UNL1        0.0385
     18 C           3.4251    1.4844   34.2462 C.ar    1  UNL1        0.0176
     19 O           3.5187    1.6915   38.2084 O.3     1  UNL1       -0.4045
     20 C           2.1126    1.8401   38.7090 C.3     1  UNL1        0.5753
     21 F           0.7064    1.9887   39.2096 F       1  UNL1       -0.1328
     22 F           1.8791    0.3749   38.4881 F       1  UNL1       -0.1328
     23 F           2.3460    3.3053   38.9299 F       1  UNL1       -0.1328
     24 C           6.0310   -3.0461   24.1996 C.3     1  UNL1        0.1166
     25 C           4.5750   -2.9983   22.0484 C.2     1  UNL1        0.2635
     26 O           4.2736   -4.4578   22.2201 O.2     1  UNL1       -0.2685
     27 N           5.4536   -2.2926   23.0382 N.am    1  UNL1       -0.2957
     28 H           5.6515   -1.3348   22.9255 H       1  UNL1        0.1501
     29 C           4.2467   -2.5347   19.4365 C.ar    1  UNL1        0.0811
     30 N           3.4728   -1.5382   18.6252 N.ar    1  UNL1       -0.2306
     31 C           2.7455   -0.6325   19.5743 C.ar    1  UNL1        0.1483
     32 C           1.8298    0.5334   19.3463 C.ar    1  UNL1        0.0488
     33 C           1.2385    1.2626   20.5161 C.ar    1  UNL1        0.0622
     34 CL          0.3227    2.4286   20.2881 Cl      1  UNL1       -0.0821
     35 C           1.5628    0.8258   21.9140 C.ar    1  UNL1        0.0305
     36 C           2.4785   -0.3401   22.1420 C.ar    1  UNL1        0.0824
     37 N           3.0699   -1.0693   20.9722 N.ar    1  UNL1       -0.2853
     38 C           3.9976   -2.2448   20.8870 C.ar    1  UNL1        0.1326
     39 C           4.5688   -5.0166   18.7393 C.3     1  UNL1        0.0067
     40 C           5.1168   -3.6288   18.8927 C.3     1  UNL1        0.0475
@<TRIPOS>BOND
     1    39    40    1
     2    40    29    1
     3    29    30   ar
     4    30    31   ar
     5    31    32   ar
     6    32    33   ar
     7    33    34    1
     8    33    35   ar
     9    35    36   ar
    10    36    37   ar
    11    37    38   ar
    12    38    25    1
    13    25    26    2
    14    25    27   am
    15    27    24    1
    16    24     1    1
    17     1     2   ar
    18     2     3   ar
    19     3     4   ar
    20     4     7    1
    21     7     8    1
    22     8     9    1
    23     9    10    1
    24    10    13    1
    25    13    14   ar
    26    14    15   ar
    27    15    16   ar
    28    16    19    1
    29    19    20    1
    30    20    21    1
    31    20    22    1
    32    20    23    1
    33    16    17   ar
    34    17    18   ar
    35    10    11    1
    36    11    12    1
    37     4     5   ar
    38     5     6   ar
    39    38    29   ar
    40     6     1   ar
    41    37    31   ar
    42    12     7    1
    43    18    13   ar
    44    27    28    1
@<TRIPOS>MOLECULE
*****
 40 44 0 0 0
SMALL
GASTEIGER

@<TRIPOS>ATOM
      1 C           0.6211    3.3731   30.4381 C.ar    1  UNL1       -0.0025
      2 C           0.7613    1.8802   30.3999 C.ar    1  UNL1       -0.0014
      3 C           1.1442    1.1953   29.1215 C.ar    1  UNL1        0.0142
      4 C           1.3869    2.0033   27.8812 C.ar    1  UNL1        0.0479
      5 C           1.2467    3.4962   27.9195 C.ar    1  UNL1        0.0142
      6 C           0.8638    4.1811   29.1978 C.ar    1  UNL1       -0.0014
      7 N           1.7698    1.3184   26.6029 N.pl3   1  UNL1       -0.3041
      8 C           2.9483    0.3909   26.5728 C.3     1  UNL1        0.1122
      9 C           3.3312   -0.2940   25.2944 C.3     1  UNL1        0.1122
     10 N           2.5356   -0.0514   24.0461 N.pl3   1  UNL1       -0.3041
     11 C           1.3571    0.8761   24.0762 C.3     1  UNL1        0.1122
     12 C           0.9742    1.5610   25.3546 C.3     1  UNL1        0.1122
     13 C           2.9185   -0.7363   22.7677 C.ar    1  UNL1        0.0481
     14 C           2.1503   -0.4598   21.5094 C.ar    1  UNL1        0.0176
     15 C           2.5332   -1.1447   20.2310 C.ar    1  UNL1        0.0385
     16 C           3.6843   -2.1062   20.2109 C.ar    1  UNL1        0.1469
     17 C           4.4525   -2.3827   21.4692 C.ar    1  UNL1        0.0385
     18 C           4.0696   -1.6978   22.7476 C.ar    1  UNL1        0.0176
     19 O           4.0672   -2.7911   18.9325 O.3     1  UNL1       -0.4045
     20 C           4.3054   -4.2720   18.9173 C.3     1  UNL1        0.5753
     21 F           4.5435   -5.7529   18.9020 F       1  UNL1       -0.1328
     22 F           2.8249   -4.5096   18.8750 F       1  UNL1       -0.1328
     23 F           5.7858   -4.0344   18.9595 F       1  UNL1       -0.1328
     24 C           0.2382    4.0580   31.7165 C.3     1  UNL1        0.1166
     25 C           1.7598    4.3164   33.8064 C.2     1  UNL1        0.2635
     26 O           2.2711    5.6218   33.2728 O.2     1  UNL1       -0.2685
     27 N           0.7434    3.5346   33.0283 N.am    1  UNL1       -0.2957
     28 H           0.4079    2.6779   33.3785 H       1  UNL1        0.1501
     29 C           1.8330    4.2566   36.4778 C.ar    1  UNL1        0.0811
     30 N           2.5920    3.4641   37.5005 N.ar    1  UNL1       -0.2306
     31 C           3.4930    2.5107   36.7731 C.ar    1  UNL1        0.1483
     32 C           4.4713    1.4837   37.2611 C.ar    1  UNL1        0.0488
     33 C           5.2475    0.6600   36.2768 C.ar    1  UNL1        0.0622
     34 CL          6.2259   -0.3670   36.7649 Cl      1  UNL1       -0.0821
     35 C           5.0454    0.8632   34.8045 C.ar    1  UNL1        0.0305
     36 C           4.0671    1.8902   34.3164 C.ar    1  UNL1        0.0824
     37 N           3.2909    2.7139   35.3007 N.ar    1  UNL1       -0.2853
     38 C           2.2650    3.7929   35.1182 C.ar    1  UNL1        0.1326
     39 C           1.1894    6.7704   36.6069 C.3     1  UNL1        0.0067
     40 C           0.8200    5.3251   36.7643 C.3     1  UNL1        0.0475
@<TRIPOS>BOND
     1    39    40    1
     2    40    29    1
     3    29    30   ar
     4    30    31   ar
     5    31    32   ar
     6    32    33   ar
     7    33    34    1
     8    33    35   ar
     9    35    36   ar
    10    36    37   ar
    11    37    38   ar
    12    38    25    1
    13    25    26    2
    14    25    27   am
    15    27    24    1
    16    24     1    1
    17     1     2   ar
    18     2     3   ar
    19     3     4   ar
    20     4     7    1
    21     7     8    1
    22     8     9    1
    23     9    10    1
    24    10    13    1
    25    13    14   ar
    26    14    15   ar
    27    15    16   ar
    28    16    19    1
    29    19    20    1
    30    20    21    1
    31    20    22    1
    32    20    23    1
    33    16    17   ar
    34    17    18   ar
    35    10    11    1
    36    11    12    1
    37     4     5   ar
    38     5     6   ar
    39    38    29   ar
    40     6     1   ar
    41    37    31   ar
    42    12     7    1
    43    18    13   ar
    44    27    28    1
@<TRIPOS>MOLECULE
*****
 40 44 0 0 0
SMALL
GASTEIGER

@<TRIPOS>ATOM
      1 C           5.5966   -3.3695   23.7275 C.ar    1  UNL1       -0.0025
      2 C           5.2193   -3.5799   22.2911 C.ar    1  UNL1       -0.0014
      3 C           4.2644   -2.6372   21.6206 C.ar    1  UNL1        0.0142
      4 C           3.6867   -1.4841   22.3865 C.ar    1  UNL1        0.0479
      5 C           4.0641   -1.2737   23.8229 C.ar    1  UNL1        0.0142
      6 C           5.0190   -2.2163   24.4934 C.ar    1  UNL1       -0.0014
      7 N           2.7318   -0.5415   21.7161 N.pl3   1  UNL1       -0.3041
      8 C           2.0216   -0.9591   20.4626 C.3     1  UNL1        0.1122
      9 C           1.0667   -0.0165   19.7921 C.3     1  UNL1        0.1122
     10 N           0.8220    1.3437   20.3751 N.pl3   1  UNL1       -0.3041
     11 C           1.5321    1.7613   21.6286 C.3     1  UNL1        0.1122
     12 C           2.4870    0.8187   22.2991 C.3     1  UNL1        0.1122
     13 C          -0.1330    2.2864   19.7046 C.ar    1  UNL1        0.0481
     14 C           0.1104    2.7198   18.2894 C.ar    1  UNL1        0.0176
     15 C          -0.8446    3.6624   17.6189 C.ar    1  UNL1        0.0385
     16 C          -2.0429    4.1716   18.3637 C.ar    1  UNL1        0.1469
     17 C          -2.2862    3.7382   19.7789 C.ar    1  UNL1        0.0385
     18 C          -1.3313    2.7956   20.4494 C.ar    1  UNL1        0.0176
     19 O          -2.9978    5.1143   17.6932 O.3     1  UNL1       -0.4045
     20 C          -4.4560    4.7721   17.6109 C.3     1  UNL1        0.5753
     21 F          -5.9141    4.4298   17.5287 F       1  UNL1       -0.1328
     22 F          -4.1138    3.4758   16.9382 F       1  UNL1       -0.1328
     23 F          -4.7981    6.0683   18.2837 F       1  UNL1       -0.1328
     24 C           6.5516   -4.3121   24.3980 C.3     1  UNL1        0.1166
     25 C           7.6773   -4.8342   26.6805 C.2     1  UNL1        0.2635
     26 O           9.0216   -4.8452   26.0149 O.2     1  UNL1       -0.2685
     27 N           6.4424   -4.5677   25.8720 N.am    1  UNL1       -0.2957
     28 H           5.5601   -4.5605   26.3088 H       1  UNL1        0.1501
     29 C           7.9938   -6.3396   28.8665 C.ar    1  UNL1        0.0811
     30 N           7.7029   -6.1627   30.3274 N.ar    1  UNL1       -0.2306
     31 C           7.0975   -4.8036   30.5182 C.ar    1  UNL1        0.1483
     32 C           6.6113   -4.0842   31.7413 C.ar    1  UNL1        0.0488
     33 C           6.0419   -2.7017   31.6215 C.ar    1  UNL1        0.0622
     34 CL          5.5556   -1.9821   32.8446 Cl      1  UNL1       -0.0821
     35 C           5.9586   -2.0386   30.2785 C.ar    1  UNL1        0.0305
     36 C           6.4448   -2.7581   29.0555 C.ar    1  UNL1        0.0824
     37 N           7.0142   -4.1405   29.1753 N.ar    1  UNL1       -0.2853
     38 C           7.5682   -5.0899   28.1545 C.ar    1  UNL1        0.1326
     39 C           7.8108   -8.3618   27.2456 C.3     1  UNL1        0.0067
     40 C           8.6033   -7.5532   28.2295 C.3     1  UNL1        0.0475
@<TRIPOS>BOND
     1    39    40    1
     2    40    29    1
     3    29    30   ar
     4    30    31   ar
     5    31    32   ar
     6    32    33   ar
     7    33    34    1
     8    33    35   ar
     9    35    36   ar
    10    36    37   ar
    11    37    38   ar
    12    38    25    1
    13    25    26    2
    14    25    27   am
    15    27    24    1
    16    24     1    1
    17     1     2   ar
    18     2     3   ar
    19     3     4   ar
    20     4     7    1
    21     7     8    1
    22     8     9    1
    23     9    10    1
    24    10    13    1
    25    13    14   ar
    26    14    15   ar
    27    15    16   ar
    28    16    19    1
    29    19    20    1
    30    20    21    1
    31    20    22    1
    32    20    23    1
    33    16    17   ar
    34    17    18   ar
    35    10    11    1
    36    11    12    1
    37     4     5   ar
    38     5     6   ar
    39    38    29   ar
    40     6     1   ar
    41    37    31   ar
    42    12     7    1
    43    18    13   ar
    44    27    28    1
@<TRIPOS>MOLECULE
*****
 40 44 0 0 0
SMALL
GASTEIGER

@<TRIPOS>ATOM
      1 C          -3.7090    4.3561   24.4101 C.ar    1  UNL1       -0.0025
      2 C          -2.3590    3.8616   23.9824 C.ar    1  UNL1       -0.0014
      3 C          -1.4256    3.2615   24.9917 C.ar    1  UNL1        0.0142
      4 C          -1.8423    3.1559   26.4288 C.ar    1  UNL1        0.0479
      5 C          -3.1923    3.6503   26.8565 C.ar    1  UNL1        0.0142
      6 C          -4.1256    4.2504   25.8472 C.ar    1  UNL1       -0.0014
      7 N          -0.9089    2.5558   27.4382 N.pl3   1  UNL1       -0.3041
      8 C          -1.0048    1.0970   27.7741 C.3     1  UNL1        0.1122
      9 C          -0.0715    0.4970   28.7834 C.3     1  UNL1        0.1122
     10 N           0.9577    1.3556   29.4568 N.pl3   1  UNL1       -0.3041
     11 C           1.0536    2.8143   29.1209 C.3     1  UNL1        0.1122
     12 C           0.1203    3.4144   28.1116 C.3     1  UNL1        0.1122
     13 C           1.8911    0.7555   30.4661 C.ar    1  UNL1        0.0481
     14 C           2.1261    1.4485   31.7755 C.ar    1  UNL1        0.0176
     15 C           3.0594    0.8484   32.7848 C.ar    1  UNL1        0.0385
     16 C           3.7578   -0.4448   32.4848 C.ar    1  UNL1        0.1469
     17 C           3.5228   -1.1378   31.1754 C.ar    1  UNL1        0.0385
     18 C           2.5894   -0.5377   30.1661 C.ar    1  UNL1        0.0176
     19 O           4.6911   -1.0449   33.4941 O.3     1  UNL1       -0.4045
     20 C           5.3194   -2.3817   33.2330 C.3     1  UNL1        0.5753
     21 F           5.9476   -3.7185   32.9718 F       1  UNL1       -0.1328
     22 F           4.0936   -3.0619   33.7666 F       1  UNL1       -0.1328
     23 F           6.5451   -1.7014   32.6994 F       1  UNL1       -0.1328
     24 C          -4.6423    4.9562   23.4008 C.3     1  UNL1        0.1166
     25 C          -4.2716    3.8400   21.0841 C.2     1  UNL1        0.2635
     26 O          -4.7285    2.5257   21.6443 O.2     1  UNL1       -0.2685
     27 N          -4.2285    5.0552   21.9624 N.am    1  UNL1       -0.2957
     28 H          -3.9286    5.9178   21.5947 H       1  UNL1        0.1501
     29 C          -4.7434    3.7149   18.4561 C.ar    1  UNL1        0.0811
     30 N          -3.9186    3.9170   17.2196 N.ar    1  UNL1       -0.2306
     31 C          -2.5232    4.2660   17.6451 C.ar    1  UNL1        0.1483
     32 C          -1.2821    4.5732   16.8609 C.ar    1  UNL1        0.0488
     33 C          -0.0032    4.8941   17.5761 C.ar    1  UNL1        0.0622
     34 CL          1.2380    5.2013   16.7919 Cl      1  UNL1       -0.0821
     35 C           0.0344    4.9078   19.0756 C.ar    1  UNL1        0.0305
     36 C          -1.2068    4.6006   19.8598 C.ar    1  UNL1        0.0824
     37 N          -2.4856    4.2797   19.1445 N.ar    1  UNL1       -0.2853
     38 C          -3.8578    3.9391   19.6457 C.ar    1  UNL1        0.1326
     39 C          -7.2220    4.3945   18.8363 C.3     1  UNL1        0.0067
     40 C          -6.1984    3.3523   18.4959 C.3     1  UNL1        0.0475
@<TRIPOS>BOND
     1    39    40    1
     2    40    29    1
     3    29    30   ar
     4    30    31   ar
     5    31    32   ar
     6    32    33   ar
     7    33    34    1
     8    33    35   ar
     9    35    36   ar
    10    36    37   ar
    11    37    38   ar
    12    38    25    1
    13    25    26    2
    14    25    27   am
    15    27    24    1
    16    24     1    1
    17     1     2   ar
    18     2     3   ar
    19     3     4   ar
    20     4     7    1
    21     7     8    1
    22     8     9    1
    23     9    10    1
    24    10    13    1
    25    13    14   ar
    26    14    15   ar
    27    15    16   ar
    28    16    19    1
    29    19    20    1
    30    20    21    1
    31    20    22    1
    32    20    23    1
    33    16    17   ar
    34    17    18   ar
    35    10    11    1
    36    11    12    1
    37     4     5   ar
    38     5     6   ar
    39    38    29   ar
    40     6     1   ar
    41    37    31   ar
    42    12     7    1
    43    18    13   ar
    44    27    28    1
@<TRIPOS>MOLECULE
*****
 40 44 0 0 0
SMALL
GASTEIGER

@<TRIPOS>ATOM
      1 C           5.0271   -0.7622   33.4083 C.ar    1  UNL1       -0.0025
      2 C           5.8606   -1.8758   32.8472 C.ar    1  UNL1       -0.0014
      3 C           5.8645   -2.1391   31.3705 C.ar    1  UNL1        0.0142
      4 C           5.0347   -1.2887   30.4548 C.ar    1  UNL1        0.0479
      5 C           4.2011   -0.1751   31.0160 C.ar    1  UNL1        0.0142
      6 C           4.1973    0.0882   32.4927 C.ar    1  UNL1       -0.0014
      7 N           5.0385   -1.5519   28.9781 N.pl3   1  UNL1       -0.3041
      8 C           6.1443   -2.3572   28.3628 C.3     1  UNL1        0.1122
      9 C           6.1482   -2.6205   26.8861 C.3     1  UNL1        0.1122
     10 N           5.0462   -2.0785   26.0247 N.pl3   1  UNL1       -0.3041
     11 C           3.9404   -1.2732   26.6401 C.3     1  UNL1        0.1122
     12 C           3.9365   -1.0099   28.1168 C.3     1  UNL1        0.1122
     13 C           5.0500   -2.3417   24.5480 C.ar    1  UNL1        0.0481
     14 C           6.0721   -3.2646   23.9533 C.ar    1  UNL1        0.0176
     15 C           6.0759   -3.5278   22.4766 C.ar    1  UNL1        0.0385
     16 C           5.0577   -2.8682   21.5946 C.ar    1  UNL1        0.1469
     17 C           4.0356   -1.9454   22.1893 C.ar    1  UNL1        0.0385
     18 C           4.0317   -1.6821   23.6660 C.ar    1  UNL1        0.0176
     19 O           5.0615   -3.1315   20.1179 O.3     1  UNL1       -0.4045
     20 C           3.9129   -3.8574   19.4825 C.3     1  UNL1        0.5753
     21 F           2.7643   -4.5833   18.8471 F       1  UNL1       -0.1328
     22 F           3.9144   -2.8709   18.3526 F       1  UNL1       -0.1328
     23 F           3.9113   -4.8439   20.6124 F       1  UNL1       -0.1328
     24 C           5.0232   -0.4989   34.8850 C.3     1  UNL1        0.1166
     25 C           4.1602    1.6984   35.9699 C.2     1  UNL1        0.2635
     26 O           5.5229    2.3075   35.8200 O.2     1  UNL1       -0.2685
     27 N           3.9105    0.2953   35.5024 N.am    1  UNL1       -0.2957
     28 H           3.0162   -0.1045   35.6007 H       1  UNL1        0.1501
     29 C           2.3102    2.1457   37.8466 C.ar    1  UNL1        0.0811
     30 N           1.2837    3.2118   38.0913 N.ar    1  UNL1       -0.2306
     31 C           1.3867    4.2176   36.9832 C.ar    1  UNL1        0.1483
     32 C           0.6287    5.4807   36.7005 C.ar    1  UNL1        0.0488
     33 C           0.9609    6.2993   35.4883 C.ar    1  UNL1        0.0622
     34 CL          0.2029    7.5625   35.2055 Cl      1  UNL1       -0.0821
     35 C           2.0510    5.8547   34.5587 C.ar    1  UNL1        0.0305
     36 C           2.8089    4.5916   34.8414 C.ar    1  UNL1        0.0824
     37 N           2.4768    3.7730   36.0536 N.ar    1  UNL1       -0.2853
     38 C           3.0475    2.4926   36.5873 C.ar    1  UNL1        0.1326
     39 C           1.3999    0.2164   39.3296 C.3     1  UNL1        0.0067
     40 C           2.5560    0.9438   38.7098 C.3     1  UNL1        0.0475
@<TRIPOS>BOND
     1    39    40    1
     2    40    29    1
     3    29    30   ar
     4    30    31   ar
     5    31    32   ar
     6    32    33   ar
     7    33    34    1
     8    33    35   ar
     9    35    36   ar
    10    36    37   ar
    11    37    38   ar
    12    38    25    1
    13    25    26    2
    14    25    27   am
    15    27    24    1
    16    24     1    1
    17     1     2   ar
    18     2     3   ar
    19     3     4   ar
    20     4     7    1
    21     7     8    1
    22     8     9    1
    23     9    10    1
    24    10    13    1
    25    13    14   ar
    26    14    15   ar
    27    15    16   ar
    28    16    19    1
    29    19    20    1
    30    20    21    1
    31    20    22    1
    32    20    23    1
    33    16    17   ar
    34    17    18   ar
    35    10    11    1
    36    11    12    1
    37     4     5   ar
    38     5     6   ar
    39    38    29   ar
    40     6     1   ar
    41    37    31   ar
    42    12     7    1
    43    18    13   ar
    44    27    28    1
@<TRIPOS>MOLECULE
*****
 40 44 0 0 0
SMALL
GASTEIGER

@<TRIPOS>ATOM
      1 C           3.5595    0.4463   32.3354 C.ar    1  UNL1       -0.0025
      2 C           2.5090    0.9894   31.4128 C.ar    1  UNL1       -0.0014
      3 C           2.5490    0.6552   29.9511 C.ar    1  UNL1        0.0142
      4 C           3.6396   -0.2222   29.4119 C.ar    1  UNL1        0.0479
      5 C           4.6902   -0.7653   30.3345 C.ar    1  UNL1        0.0142
      6 C           4.6502   -0.4311   31.7962 C.ar    1  UNL1       -0.0014
      7 N           3.6796   -0.5564   27.9502 N.pl3   1  UNL1       -0.3041
      8 C           4.6095   -1.6216   27.4496 C.3     1  UNL1        0.1122
      9 C           4.6495   -1.9558   25.9878 C.3     1  UNL1        0.1122
     10 N           3.7596   -1.2248   25.0267 N.pl3   1  UNL1       -0.3041
     11 C           2.8297   -0.1597   25.5273 C.3     1  UNL1        0.1122
     12 C           2.7897    0.1746   26.9890 C.3     1  UNL1        0.1122
     13 C           3.7997   -1.5591   23.5650 C.ar    1  UNL1        0.0481
     14 C           3.0463   -0.7136   22.5813 C.ar    1  UNL1        0.0176
     15 C           3.0863   -1.0478   21.1196 C.ar    1  UNL1        0.0385
     16 C           3.8797   -2.2276   20.6414 C.ar    1  UNL1        0.1469
     17 C           4.6331   -3.0731   21.6250 C.ar    1  UNL1        0.0385
     18 C           4.5931   -2.7388   23.0868 C.ar    1  UNL1        0.0176
     19 O           3.9197   -2.5618   19.1797 O.3     1  UNL1       -0.4045
     20 C           4.3243   -3.9362   18.7354 C.3     1  UNL1        0.5753
     21 F           4.7289   -5.3105   18.2911 F       1  UNL1       -0.1328
     22 F           2.9388   -4.4358   19.0193 F       1  UNL1       -0.1328
     23 F           5.7099   -3.4365   18.4515 F       1  UNL1       -0.1328
     24 C           3.5195    0.7805   33.7972 C.3     1  UNL1        0.1166
     25 C           3.0078    3.1860   34.6349 C.2     1  UNL1        0.2635
     26 O           4.4499    3.5563   34.4522 O.2     1  UNL1       -0.2685
     27 N           2.5427    1.7981   34.3074 N.am    1  UNL1       -0.2957
     28 H           1.5962    1.5550   34.4273 H       1  UNL1        0.1501
     29 C           1.9741    4.7484   36.5415 C.ar    1  UNL1        0.0811
     30 N           0.8474    5.7365   36.6079 N.ar    1  UNL1       -0.2306
     31 C           0.2080    5.8023   35.2526 C.ar    1  UNL1        0.1483
     32 C          -0.9457    6.6025   34.7250 C.ar    1  UNL1        0.0488
     33 C          -1.3680    6.4552   33.2932 C.ar    1  UNL1        0.0622
     34 CL         -2.5218    7.2554   32.7655 Cl      1  UNL1       -0.0821
     35 C          -0.6366    5.5078   32.3892 C.ar    1  UNL1        0.0305
     36 C           0.5172    4.7076   32.9168 C.ar    1  UNL1        0.0824
     37 N           0.9395    4.8548   34.3486 N.ar    1  UNL1       -0.2853
     38 C           2.0309    4.2035   35.1452 C.ar    1  UNL1        0.1326
     39 C           2.7100    3.0538   38.3681 C.3     1  UNL1        0.0067
     40 C           2.8840    4.3715   37.6728 C.3     1  UNL1        0.0475
@<TRIPOS>BOND
     1    39    40    1
     2    40    29    1
     3    29    30   ar
     4    30    31   ar
     5    31    32   ar
     6    32    33   ar
     7    33    34    1
     8    33    35   ar
     9    35    36   ar
    10    36    37   ar
    11    37    38   ar
    12    38    25    1
    13    25    26    2
    14    25    27   am
    15    27    24    1
    16    24     1    1
    17     1     2   ar
    18     2     3   ar
    19     3     4   ar
    20     4     7    1
    21     7     8    1
    22     8     9    1
    23     9    10    1
    24    10    13    1
    25    13    14   ar
    26    14    15   ar
    27    15    16   ar
    28    16    19    1
    29    19    20    1
    30    20    21    1
    31    20    22    1
    32    20    23    1
    33    16    17   ar
    34    17    18   ar
    35    10    11    1
    36    11    12    1
    37     4     5   ar
    38     5     6   ar
    39    38    29   ar
    40     6     1   ar
    41    37    31   ar
    42    12     7    1
    43    18    13   ar
    44    27    28    1
