@<TRIPOS>MOLECULE
*****
 34 38 0 0 0
SMALL
GASTEIGER

@<TRIPOS>ATOM
      1 N          -9.3170  -16.2004   23.9465 N.3     1  UNL1       -0.2726
      2 C          -9.1495  -15.6185   25.3189 C.3     1  UNL1        0.0721
      3 C          -7.8803  -15.3432   26.0694 C.3     1  UNL1        0.0177
      4 C          -6.4651  -15.5817   25.6330 C.3     1  UNL1        0.0055
      5 C          -4.9921  -15.7368   25.3964 C.3     1  UNL1        0.0045
      6 C          -5.9697  -16.1546   24.3383 C.3     1  UNL1        0.0203
      7 C          -6.7671  -16.6304   23.1602 C.3     1  UNL1        0.0214
      8 C          -8.2567  -16.6508   22.9858 C.3     1  UNL1        0.0724
      9 C          -4.7632  -16.5425   23.5357 C.ar    1  UNL1       -0.0228
     10 C          -4.3635  -17.9845   23.4318 C.ar    1  UNL1       -0.0043
     11 C          -3.1571  -18.3724   22.6293 C.ar    1  UNL1        0.0035
     12 C          -2.3504  -17.3183   21.9306 C.ar    1  UNL1        0.0714
     13 C          -2.7502  -15.8762   22.0345 C.ar    1  UNL1        0.0035
     14 C          -3.9566  -15.4884   22.8370 C.ar    1  UNL1       -0.0043
     15 C          -1.1440  -17.7061   21.1280 C.3     1  UNL1        0.4186
     16 F           0.0624  -18.0940   20.3254 F       1  UNL1       -0.1659
     17 F          -1.4439  -19.1546   21.3774 F       1  UNL1       -0.1659
     18 F          -0.8442  -16.2577   20.8786 F       1  UNL1       -0.1659
     19 C         -10.7319  -16.3521   23.4722 C.3     1  UNL1        0.0730
     20 C         -11.0085  -16.7502   22.0527 C.3     1  UNL1        0.0294
     21 C         -11.9529  -17.8784   21.7606 C.3     1  UNL1        0.0666
     22 S         -11.4358  -19.2832   21.6633 S.3     1  UNL1       -0.0756
     23 C          -9.1433  -19.0023   19.3579 C.3     1  UNL1        0.1340
     24 N          -8.9177  -19.4281   20.7784 N.ar    1  UNL1       -0.2884
     25 C          -9.9714  -19.5572   21.8381 C.ar    1  UNL1        0.1932
     26 N          -9.3037  -20.0083   23.1032 N.ar    1  UNL1       -0.1221
     27 N          -7.8374  -20.1580   22.8254 N.ar    1  UNL1       -0.1282
     28 C          -7.5988  -19.7994   21.3886 C.ar    1  UNL1        0.1684
     29 C          -6.2737  -19.8103   20.6855 C.ar    1  UNL1        0.0585
     30 C          -5.4878  -21.0840   20.5861 C.ar    1  UNL1        0.0272
     31 C          -4.1629  -21.0948   19.8829 C.ar    1  UNL1        0.1223
     32 N          -3.6239  -19.8319   19.2792 N.ar    1  UNL1       -0.1464
     33 N          -4.4098  -18.5582   19.3786 N.ar    1  UNL1       -0.1463
     34 C          -5.7347  -18.5474   20.0817 C.ar    1  UNL1        0.1252
@<TRIPOS>BOND
     1    23    24    1
     2    24    25   ar
     3    25    22    1
     4    22    21    1
     5    21    20    1
     6    20    19    1
     7    19     1    1
     8     1     2    1
     9     2     3    1
    10     3     4    1
    11     4     5    1
    12     5     6    1
    13     6     9    1
    14     9    10   ar
    15    10    11   ar
    16    11    12   ar
    17    12    15    1
    18    15    16    1
    19    15    17    1
    20    15    18    1
    21    12    13   ar
    22    13    14   ar
    23     6     7    1
    24     7     8    1
    25    25    26   ar
    26    26    27   ar
    27    27    28   ar
    28    28    29    1
    29    29    30   ar
    30    30    31   ar
    31    31    32   ar
    32    32    33   ar
    33    33    34   ar
    34    28    24   ar
    35    34    29   ar
    36     8     1    1
    37     6     4    1
    38    14     9   ar
@<TRIPOS>MOLECULE
*****
 34 38 0 0 0
SMALL
GASTEIGER

@<TRIPOS>ATOM
      1 N          -4.8619  -16.4081   23.7451 N.3     1  UNL1       -0.2726
      2 C          -4.7243  -15.6553   25.0352 C.3     1  UNL1        0.0721
      3 C          -5.7968  -15.2619   26.0073 C.3     1  UNL1        0.0177
      4 C          -7.2717  -15.5241   25.9294 C.3     1  UNL1        0.0055
      5 C          -8.7592  -15.6772   26.0470 C.3     1  UNL1        0.0045
      6 C          -8.0383  -16.2445   24.8602 C.3     1  UNL1        0.0203
      7 C          -7.5194  -16.8806   23.6048 C.3     1  UNL1        0.0214
      8 C          -6.1058  -16.9535   23.1084 C.3     1  UNL1        0.0724
      9 C          -9.3900  -16.7050   24.4010 C.ar    1  UNL1       -0.0228
     10 C         -10.1429  -15.9132   23.3732 C.ar    1  UNL1       -0.0043
     11 C         -11.4946  -16.3737   22.9140 C.ar    1  UNL1        0.0035
     12 C         -12.0934  -17.6261   23.4825 C.ar    1  UNL1        0.0714
     13 C         -11.3404  -18.4179   24.5103 C.ar    1  UNL1        0.0035
     14 C          -9.9888  -17.9573   24.9695 C.ar    1  UNL1       -0.0043
     15 C         -13.4450  -18.0866   23.0234 C.3     1  UNL1        0.4186
     16 F         -14.7967  -18.5472   22.5641 F       1  UNL1       -0.1659
     17 F         -12.9860  -18.0116   21.5972 F       1  UNL1       -0.1659
     18 F         -13.9040  -18.1616   24.4494 F       1  UNL1       -0.1659
     19 C          -3.5868  -16.6473   22.9920 C.3     1  UNL1        0.0730
     20 C          -2.7460  -17.8497   23.3035 C.3     1  UNL1        0.0294
     21 C          -1.9765  -18.5304   22.2106 C.3     1  UNL1        0.0666
     22 S          -2.6422  -19.5728   21.3618 S.3     1  UNL1       -0.0756
     23 C          -5.5956  -20.5856   22.3110 C.3     1  UNL1        0.1340
     24 N          -5.2990  -19.7312   21.1144 N.ar    1  UNL1       -0.2884
     25 C          -3.9415  -19.2656   20.6781 C.ar    1  UNL1        0.1932
     26 N          -4.1114  -18.4390   19.4380 N.ar    1  UNL1       -0.1221
     27 N          -5.5738  -18.3936   19.1079 N.ar    1  UNL1       -0.1282
     28 C          -6.3078  -19.1923   20.1440 C.ar    1  UNL1        0.1684
     29 C          -7.7905  -19.4131   20.1998 C.ar    1  UNL1        0.0585
     30 C          -8.5126  -19.3281   21.5118 C.ar    1  UNL1        0.0272
     31 C          -9.9952  -19.5490   21.5675 C.ar    1  UNL1        0.1223
     32 N         -10.7557  -19.8549   20.3113 N.ar    1  UNL1       -0.1464
     33 N         -10.0336  -19.9400   18.9993 N.ar    1  UNL1       -0.1463
     34 C          -8.5510  -19.7191   18.9436 C.ar    1  UNL1        0.1252
@<TRIPOS>BOND
     1    23    24    1
     2    24    25   ar
     3    25    22    1
     4    22    21    1
     5    21    20    1
     6    20    19    1
     7    19     1    1
     8     1     2    1
     9     2     3    1
    10     3     4    1
    11     4     5    1
    12     5     6    1
    13     6     9    1
    14     9    10   ar
    15    10    11   ar
    16    11    12   ar
    17    12    15    1
    18    15    16    1
    19    15    17    1
    20    15    18    1
    21    12    13   ar
    22    13    14   ar
    23     6     7    1
    24     7     8    1
    25    25    26   ar
    26    26    27   ar
    27    27    28   ar
    28    28    29    1
    29    29    30   ar
    30    30    31   ar
    31    31    32   ar
    32    32    33   ar
    33    33    34   ar
    34    28    24   ar
    35    34    29   ar
    36     8     1    1
    37     6     4    1
    38    14     9   ar
@<TRIPOS>MOLECULE
*****
 34 38 0 0 0
SMALL
GASTEIGER

@<TRIPOS>ATOM
      1 N          -6.0788  -19.6034   20.8445 N.3     1  UNL1       -0.2726
      2 C          -6.4291  -19.7069   19.3896 C.3     1  UNL1        0.0721
      3 C          -7.7809  -19.6227   18.7450 C.3     1  UNL1        0.0177
      4 C          -9.1162  -19.4144   19.3958 C.3     1  UNL1        0.0055
      5 C         -10.5355  -19.2171   19.8391 C.3     1  UNL1        0.0045
      6 C          -9.4295  -19.2387   20.8522 C.3     1  UNL1        0.0203
      7 C          -8.4849  -19.2279   22.0173 C.3     1  UNL1        0.0214
      8 C          -6.9937  -19.3902   22.0140 C.3     1  UNL1        0.0724
      9 C         -10.5098  -19.0223   21.8702 C.ar    1  UNL1       -0.0228
     10 C         -11.6854  -18.1504   21.5424 C.ar    1  UNL1       -0.0043
     11 C         -12.7656  -17.9340   22.5604 C.ar    1  UNL1        0.0035
     12 C         -12.6701  -18.5896   23.9062 C.ar    1  UNL1        0.0714
     13 C         -11.4944  -19.4615   24.2340 C.ar    1  UNL1        0.0035
     14 C         -10.4142  -19.6779   23.2160 C.ar    1  UNL1       -0.0043
     15 C         -13.7503  -18.3732   24.9242 C.3     1  UNL1        0.4186
     16 F         -14.8304  -18.1569   25.9424 F       1  UNL1       -0.1659
     17 F         -12.8579  -18.9359   25.9906 F       1  UNL1       -0.1659
     18 F         -14.6427  -17.8105   23.8580 F       1  UNL1       -0.1659
     19 C          -4.6208  -19.7298   21.1734 C.3     1  UNL1        0.0730
     20 C          -3.6225  -18.8227   20.5172 C.3     1  UNL1        0.0294
     21 C          -2.2326  -18.7120   21.0703 C.3     1  UNL1        0.0666
     22 S          -1.8346  -17.5015   21.8618 S.3     1  UNL1       -0.0756
     23 C          -3.9775  -18.2187   24.2162 C.3     1  UNL1        0.1340
     24 N          -3.8722  -16.9114   23.4882 N.ar    1  UNL1       -0.2884
     25 C          -2.8872  -16.5818   22.4060 C.ar    1  UNL1        0.1932
     26 N          -3.1397  -15.1710   21.9635 N.ar    1  UNL1       -0.1221
     27 N          -4.2807  -14.6287   22.7722 N.ar    1  UNL1       -0.1282
     28 C          -4.7334  -15.7044   23.7145 C.ar    1  UNL1        0.1684
     29 C          -5.8512  -15.5926   24.7086 C.ar    1  UNL1        0.0585
     30 C          -5.5451  -15.5019   26.1742 C.ar    1  UNL1        0.0272
     31 C          -6.6628  -15.3901   27.1683 C.ar    1  UNL1        0.1223
     32 N          -8.0867  -15.3690   26.6967 N.ar    1  UNL1       -0.1464
     33 N          -8.3927  -15.4597   25.2311 N.ar    1  UNL1       -0.1463
     34 C          -7.2750  -15.5715   24.2370 C.ar    1  UNL1        0.1252
@<TRIPOS>BOND
     1    23    24    1
     2    24    25   ar
     3    25    22    1
     4    22    21    1
     5    21    20    1
     6    20    19    1
     7    19     1    1
     8     1     2    1
     9     2     3    1
    10     3     4    1
    11     4     5    1
    12     5     6    1
    13     6     9    1
    14     9    10   ar
    15    10    11   ar
    16    11    12   ar
    17    12    15    1
    18    15    16    1
    19    15    17    1
    20    15    18    1
    21    12    13   ar
    22    13    14   ar
    23     6     7    1
    24     7     8    1
    25    25    26   ar
    26    26    27   ar
    27    27    28   ar
    28    28    29    1
    29    29    30   ar
    30    30    31   ar
    31    31    32   ar
    32    32    33   ar
    33    33    34   ar
    34    28    24   ar
    35    34    29   ar
    36     8     1    1
    37     6     4    1
    38    14     9   ar
@<TRIPOS>MOLECULE
*****
 34 38 0 0 0
SMALL
GASTEIGER

@<TRIPOS>ATOM
      1 N          -8.7379  -19.4756   20.0484 N.3     1  UNL1       -0.2726
      2 C          -9.0121  -19.9497   21.4449 C.3     1  UNL1        0.0721
      3 C          -8.0561  -20.0775   22.5937 C.3     1  UNL1        0.0177
      4 C          -6.5899  -19.7630   22.6298 C.3     1  UNL1        0.0055
      5 C          -5.1321  -19.5138   22.8802 C.3     1  UNL1        0.0045
      6 C          -5.7175  -19.2429   21.5260 C.3     1  UNL1        0.0203
      7 C          -6.0959  -18.9089   20.1135 C.3     1  UNL1        0.0214
      8 C          -7.4400  -19.0124   19.4558 C.3     1  UNL1        0.0724
      9 C          -4.3321  -18.8202   21.1359 C.ar    1  UNL1       -0.0228
     10 C          -3.8537  -19.0254   19.7291 C.ar    1  UNL1       -0.0043
     11 C          -2.4683  -18.6027   19.3390 C.ar    1  UNL1        0.0035
     12 C          -1.5615  -17.9748   20.3556 C.ar    1  UNL1        0.0714
     13 C          -2.0400  -17.7696   21.7624 C.ar    1  UNL1        0.0035
     14 C          -3.4253  -18.1923   22.1525 C.ar    1  UNL1       -0.0043
     15 C          -0.1762  -17.5521   19.9655 C.3     1  UNL1        0.4186
     16 F           1.2091  -17.1294   19.5754 F       1  UNL1       -0.1659
     17 F           0.1578  -18.9716   19.6138 F       1  UNL1       -0.1659
     18 F          -0.5102  -16.1327   20.3171 F       1  UNL1       -0.1659
     19 C          -9.9175  -19.4631   19.1220 C.3     1  UNL1        0.0730
     20 C         -11.2533  -18.9914   19.6149 C.3     1  UNL1        0.0294
     21 C         -11.5264  -17.5228   19.7517 C.3     1  UNL1        0.0666
     22 S         -11.4570  -16.8695   21.1003 S.3     1  UNL1       -0.0756
     23 C         -10.0777  -17.4346   24.0033 C.3     1  UNL1        0.1340
     24 N          -9.5273  -16.5519   22.9225 N.ar    1  UNL1       -0.2884
     25 C         -10.1614  -16.2922   21.5881 C.ar    1  UNL1        0.1932
     26 N          -9.2722  -15.3538   20.8273 N.ar    1  UNL1       -0.1221
     27 N          -8.0888  -15.0336   21.6914 N.ar    1  UNL1       -0.1282
     28 C          -8.2465  -15.7741   22.9863 C.ar    1  UNL1        0.1684
     29 C          -7.2909  -15.7423   24.1422 C.ar    1  UNL1        0.0585
     30 C          -5.8283  -15.9835   23.9130 C.ar    1  UNL1        0.0272
     31 C          -4.8728  -15.9517   25.0689 C.ar    1  UNL1        0.1223
     32 N          -5.3799  -15.6786   26.4539 N.ar    1  UNL1       -0.1464
     33 N          -6.8425  -15.4373   26.6831 N.ar    1  UNL1       -0.1463
     34 C          -7.7980  -15.4692   25.5272 C.ar    1  UNL1        0.1252
@<TRIPOS>BOND
     1    23    24    1
     2    24    25   ar
     3    25    22    1
     4    22    21    1
     5    21    20    1
     6    20    19    1
     7    19     1    1
     8     1     2    1
     9     2     3    1
    10     3     4    1
    11     4     5    1
    12     5     6    1
    13     6     9    1
    14     9    10   ar
    15    10    11   ar
    16    11    12   ar
    17    12    15    1
    18    15    16    1
    19    15    17    1
    20    15    18    1
    21    12    13   ar
    22    13    14   ar
    23     6     7    1
    24     7     8    1
    25    25    26   ar
    26    26    27   ar
    27    27    28   ar
    28    28    29    1
    29    29    30   ar
    30    30    31   ar
    31    31    32   ar
    32    32    33   ar
    33    33    34   ar
    34    28    24   ar
    35    34    29   ar
    36     8     1    1
    37     6     4    1
    38    14     9   ar
@<TRIPOS>MOLECULE
*****
 34 38 0 0 0
SMALL
GASTEIGER

@<TRIPOS>ATOM
      1 N          -4.6804  -18.8141   19.9658 N.3     1  UNL1       -0.2726
      2 C          -4.1652  -20.1150   20.5064 C.3     1  UNL1        0.0721
      3 C          -4.8390  -21.0691   21.4474 C.3     1  UNL1        0.0177
      4 C          -6.1944  -20.9581   22.0804 C.3     1  UNL1        0.0055
      5 C          -7.5020  -21.0434   22.8104 C.3     1  UNL1        0.0045
      6 C          -7.2108  -19.8654   21.9286 C.3     1  UNL1        0.0203
      7 C          -7.1227  -18.6140   21.1063 C.3     1  UNL1        0.0214
      8 C          -5.9967  -18.1460   20.2328 C.3     1  UNL1        0.0724
      9 C          -8.5706  -19.3734   22.3274 C.ar    1  UNL1       -0.0228
     10 C          -9.2647  -18.3337   21.4985 C.ar    1  UNL1       -0.0043
     11 C         -10.6245  -17.8417   21.8974 C.ar    1  UNL1        0.0035
     12 C         -11.2900  -18.3895   23.1250 C.ar    1  UNL1        0.0714
     13 C         -10.5958  -19.4293   23.9539 C.ar    1  UNL1        0.0035
     14 C          -9.2360  -19.9212   23.5550 C.ar    1  UNL1       -0.0043
     15 C         -12.6497  -17.8976   23.5238 C.3     1  UNL1        0.4186
     16 F         -14.0095  -17.4056   23.9227 F       1  UNL1       -0.1659
     17 F         -12.5126  -18.5912   24.8468 F       1  UNL1       -0.1659
     18 F         -12.7869  -17.2039   22.2009 F       1  UNL1       -0.1659
     19 C          -3.7574  -18.0848   19.0352 C.3     1  UNL1        0.0730
     20 C          -2.2720  -18.2281   19.1873 C.3     1  UNL1        0.0294
     21 C          -1.5219  -17.3193   20.1153 C.3     1  UNL1        0.0666
     22 S          -1.7747  -17.3813   21.5926 S.3     1  UNL1       -0.0756
     23 C          -4.0529  -18.3948   23.6978 C.3     1  UNL1        0.1340
     24 N          -3.8956  -16.9981   23.1738 N.ar    1  UNL1       -0.2884
     25 C          -2.8484  -16.5323   22.2061 C.ar    1  UNL1        0.1932
     26 N          -3.0635  -15.0684   21.9596 N.ar    1  UNL1       -0.1221
     27 N          -4.2435  -14.6295   22.7749 N.ar    1  UNL1       -0.1282
     28 C          -4.7578  -15.8222   23.5253 C.ar    1  UNL1        0.1684
     29 C          -5.9288  -15.8363   24.4627 C.ar    1  UNL1        0.0585
     30 C          -7.2915  -16.2042   23.9551 C.ar    1  UNL1        0.0272
     31 C          -8.4624  -16.2183   24.8925 C.ar    1  UNL1        0.1223
     32 N          -8.2706  -15.8646   26.3376 N.ar    1  UNL1       -0.1464
     33 N          -6.9079  -15.4967   26.8452 N.ar    1  UNL1       -0.1463
     34 C          -5.7370  -15.4826   25.9078 C.ar    1  UNL1        0.1252
@<TRIPOS>BOND
     1    23    24    1
     2    24    25   ar
     3    25    22    1
     4    22    21    1
     5    21    20    1
     6    20    19    1
     7    19     1    1
     8     1     2    1
     9     2     3    1
    10     3     4    1
    11     4     5    1
    12     5     6    1
    13     6     9    1
    14     9    10   ar
    15    10    11   ar
    16    11    12   ar
    17    12    15    1
    18    15    16    1
    19    15    17    1
    20    15    18    1
    21    12    13   ar
    22    13    14   ar
    23     6     7    1
    24     7     8    1
    25    25    26   ar
    26    26    27   ar
    27    27    28   ar
    28    28    29    1
    29    29    30   ar
    30    30    31   ar
    31    31    32   ar
    32    32    33   ar
    33    33    34   ar
    34    28    24   ar
    35    34    29   ar
    36     8     1    1
    37     6     4    1
    38    14     9   ar
@<TRIPOS>MOLECULE
*****
 34 38 0 0 0
SMALL
GASTEIGER

@<TRIPOS>ATOM
      1 N          -4.0822  -19.4833   20.1694 N.3     1  UNL1       -0.2726
      2 C          -4.0557  -20.5082   21.2644 C.3     1  UNL1        0.0721
      3 C          -5.1681  -20.9291   22.1784 C.3     1  UNL1        0.0177
      4 C          -6.5817  -20.4293   22.2232 C.3     1  UNL1        0.0055
      5 C          -8.0234  -20.0746   22.4363 C.3     1  UNL1        0.0045
      6 C          -7.2320  -19.3850   21.3649 C.3     1  UNL1        0.0203
      7 C          -6.6293  -18.5826   20.2500 C.3     1  UNL1        0.0214
      8 C          -5.2275  -18.6264   19.7179 C.3     1  UNL1        0.0724
      9 C          -8.4956  -18.6311   21.0736 C.ar    1  UNL1       -0.0228
     10 C          -8.8220  -17.3875   21.8462 C.ar    1  UNL1       -0.0043
     11 C         -10.0857  -16.6336   21.5549 C.ar    1  UNL1        0.0035
     12 C         -11.0229  -17.1233   20.4910 C.ar    1  UNL1        0.0714
     13 C         -10.6965  -18.3670   19.7184 C.ar    1  UNL1        0.0035
     14 C          -9.4328  -19.1208   20.0098 C.ar    1  UNL1       -0.0043
     15 C         -12.2865  -16.3695   20.1997 C.3     1  UNL1        0.4186
     16 F         -13.5502  -15.6157   19.9083 F       1  UNL1       -0.1659
     17 F         -13.0133  -17.1930   21.2213 F       1  UNL1       -0.1659
     18 F         -11.5599  -15.5460   19.1780 F       1  UNL1       -0.1659
     19 C          -2.7928  -19.2899   19.4277 C.3     1  UNL1        0.0730
     20 C          -2.2566  -17.9071   19.2037 C.3     1  UNL1        0.0294
     21 C          -1.4975  -17.2111   20.2944 C.3     1  UNL1        0.0666
     22 S          -1.9118  -17.3856   21.7255 S.3     1  UNL1       -0.0756
     23 C          -4.0506  -18.1682   24.0627 C.3     1  UNL1        0.1340
     24 N          -3.9183  -16.8283   23.4014 N.ar    1  UNL1       -0.2884
     25 C          -2.9352  -16.4686   22.3271 C.ar    1  UNL1        0.1932
     26 N          -3.1552  -15.0310   21.9600 N.ar    1  UNL1       -0.1221
     27 N          -4.2741  -14.5022   22.8074 N.ar    1  UNL1       -0.1282
     28 C          -4.7458  -15.6130   23.6982 C.ar    1  UNL1        0.1684
     29 C          -5.8510  -15.5241   24.7086 C.ar    1  UNL1        0.0585
     30 C          -5.5315  -15.5498   26.1739 C.ar    1  UNL1        0.0272
     31 C          -6.6367  -15.4609   27.1842 C.ar    1  UNL1        0.1223
     32 N          -8.0614  -15.3463   26.7291 N.ar    1  UNL1       -0.1464
     33 N          -8.3809  -15.3206   25.2638 N.ar    1  UNL1       -0.1463
     34 C          -7.2757  -15.4095   24.2535 C.ar    1  UNL1        0.1252
@<TRIPOS>BOND
     1    23    24    1
     2    24    25   ar
     3    25    22    1
     4    22    21    1
     5    21    20    1
     6    20    19    1
     7    19     1    1
     8     1     2    1
     9     2     3    1
    10     3     4    1
    11     4     5    1
    12     5     6    1
    13     6     9    1
    14     9    10   ar
    15    10    11   ar
    16    11    12   ar
    17    12    15    1
    18    15    16    1
    19    15    17    1
    20    15    18    1
    21    12    13   ar
    22    13    14   ar
    23     6     7    1
    24     7     8    1
    25    25    26   ar
    26    26    27   ar
    27    27    28   ar
    28    28    29    1
    29    29    30   ar
    30    30    31   ar
    31    31    32   ar
    32    32    33   ar
    33    33    34   ar
    34    28    24   ar
    35    34    29   ar
    36     8     1    1
    37     6     4    1
    38    14     9   ar
@<TRIPOS>MOLECULE
*****
 34 38 0 0 0
SMALL
GASTEIGER

@<TRIPOS>ATOM
      1 N          -3.0010  -18.9980   21.3920 N.3     1  UNL1       -0.2726
      2 C          -2.1482  -17.8883   20.8522 C.3     1  UNL1        0.0721
      3 C          -2.1652  -16.4335   21.2174 C.3     1  UNL1        0.0177
      4 C          -3.0391  -15.7291   22.2125 C.3     1  UNL1        0.0055
      5 C          -3.8025  -14.8390   23.1478 C.3     1  UNL1        0.0045
      6 C          -4.1118  -16.3055   23.0882 C.3     1  UNL1        0.0203
      7 C          -4.5757  -17.7287   23.1851 C.3     1  UNL1        0.0214
      8 C          -4.0814  -18.9270   22.4302 C.3     1  UNL1        0.0724
      9 C          -5.1460  -16.0153   24.1353 C.ar    1  UNL1       -0.0228
     10 C          -6.5874  -15.8708   23.7461 C.ar    1  UNL1       -0.0043
     11 C          -7.6215  -15.5806   24.7932 C.ar    1  UNL1        0.0035
     12 C          -7.2142  -15.4349   26.2295 C.ar    1  UNL1        0.0714
     13 C          -5.7727  -15.5794   26.6187 C.ar    1  UNL1        0.0035
     14 C          -4.7386  -15.8696   25.5716 C.ar    1  UNL1       -0.0043
     15 C          -8.2482  -15.1448   27.2766 C.3     1  UNL1        0.4186
     16 F          -9.2822  -14.8545   28.3238 F       1  UNL1       -0.1659
     17 F          -7.2670  -14.2742   28.0042 F       1  UNL1       -0.1659
     18 F          -9.2294  -16.0153   26.5491 F       1  UNL1       -0.1659
     19 C          -2.7388  -20.3586   20.8176 C.3     1  UNL1        0.0730
     20 C          -3.7139  -20.9663   19.8534 C.3     1  UNL1        0.0294
     21 C          -5.0302  -20.2951   19.5949 C.3     1  UNL1        0.0666
     22 S          -6.2294  -20.6520   20.4223 S.3     1  UNL1       -0.0756
     23 C          -8.1237  -19.6289   22.8747 C.3     1  UNL1        0.1340
     24 N          -8.3673  -19.3906   21.4139 N.ar    1  UNL1       -0.2884
     25 C          -7.4966  -19.8609   20.2867 C.ar    1  UNL1        0.1932
     26 N          -8.1155  -19.4011   19.0001 N.ar    1  UNL1       -0.1221
     27 N          -9.3687  -18.6468   19.3321 N.ar    1  UNL1       -0.1282
     28 C          -9.5243  -18.6402   20.8240 C.ar    1  UNL1        0.1684
     29 C         -10.6410  -17.9963   21.5912 C.ar    1  UNL1        0.0585
     30 C         -11.5308  -18.8314   22.4634 C.ar    1  UNL1        0.0272
     31 C         -12.6474  -18.1875   23.2306 C.ar    1  UNL1        0.1223
     32 N         -12.8742  -16.7085   23.1255 N.ar    1  UNL1       -0.1464
     33 N         -11.9844  -15.8734   22.2532 N.ar    1  UNL1       -0.1463
     34 C         -10.8678  -16.5173   21.4861 C.ar    1  UNL1        0.1252
@<TRIPOS>BOND
     1    23    24    1
     2    24    25   ar
     3    25    22    1
     4    22    21    1
     5    21    20    1
     6    20    19    1
     7    19     1    1
     8     1     2    1
     9     2     3    1
    10     3     4    1
    11     4     5    1
    12     5     6    1
    13     6     9    1
    14     9    10   ar
    15    10    11   ar
    16    11    12   ar
    17    12    15    1
    18    15    16    1
    19    15    17    1
    20    15    18    1
    21    12    13   ar
    22    13    14   ar
    23     6     7    1
    24     7     8    1
    25    25    26   ar
    26    26    27   ar
    27    27    28   ar
    28    28    29    1
    29    29    30   ar
    30    30    31   ar
    31    31    32   ar
    32    32    33   ar
    33    33    34   ar
    34    28    24   ar
    35    34    29   ar
    36     8     1    1
    37     6     4    1
    38    14     9   ar
@<TRIPOS>MOLECULE
*****
 34 38 0 0 0
SMALL
GASTEIGER

@<TRIPOS>ATOM
      1 N          -5.3580  -16.2863   24.1467 N.3     1  UNL1       -0.2726
      2 C          -4.0253  -16.9092   24.4402 C.3     1  UNL1        0.0721
      3 C          -3.4025  -18.1227   23.8162 C.3     1  UNL1        0.0177
      4 C          -3.9584  -19.0133   22.7448 C.3     1  UNL1        0.0055
      5 C          -4.3233  -20.0193   21.6937 C.3     1  UNL1        0.0045
      6 C          -5.2745  -18.9101   22.0326 C.3     1  UNL1        0.0203
      7 C          -6.3597  -17.8909   22.2161 C.3     1  UNL1        0.0214
      8 C          -6.3969  -16.7232   23.1569 C.3     1  UNL1        0.0724
      9 C          -6.1713  -19.5128   20.9921 C.ar    1  UNL1       -0.0228
     10 C          -5.9156  -20.9055   20.4974 C.ar    1  UNL1       -0.0043
     11 C          -6.8124  -21.5083   19.4569 C.ar    1  UNL1        0.0035
     12 C          -7.9648  -20.7182   18.9113 C.ar    1  UNL1        0.0714
     13 C          -8.2205  -19.3253   19.4061 C.ar    1  UNL1        0.0035
     14 C          -7.3237  -18.7227   20.4465 C.ar    1  UNL1       -0.0043
     15 C          -8.8616  -21.3208   17.8708 C.3     1  UNL1        0.4186
     16 F          -9.7584  -21.9235   16.8303 F       1  UNL1       -0.1659
     17 F          -7.7781  -22.2887   17.4976 F       1  UNL1       -0.1659
     18 F          -9.9452  -20.3530   18.2440 F       1  UNL1       -0.1659
     19 C          -5.6964  -15.0651   24.9492 C.3     1  UNL1        0.0730
     20 C          -5.6551  -15.1171   26.4477 C.3     1  UNL1        0.0294
     21 C          -6.4455  -16.1578   27.1841 C.3     1  UNL1        0.0666
     22 S          -7.9433  -16.0798   27.2145 S.3     1  UNL1       -0.0756
     23 C          -8.9979  -14.8667   24.3746 C.3     1  UNL1        0.1340
     24 N          -9.2383  -16.2573   24.8829 N.ar    1  UNL1       -0.2884
     25 C          -8.7535  -16.8149   26.1883 C.ar    1  UNL1        0.1932
     26 N          -9.2213  -18.2366   26.2874 N.ar    1  UNL1       -0.1221
     27 N          -9.9952  -18.5577   25.0432 N.ar    1  UNL1       -0.1282
     28 C         -10.0056  -17.3344   24.1752 C.ar    1  UNL1        0.1684
     29 C         -10.6674  -17.2101   22.8348 C.ar    1  UNL1        0.0585
     30 C         -11.9731  -17.9016   22.5759 C.ar    1  UNL1        0.0272
     31 C         -12.6347  -17.7773   21.2355 C.ar    1  UNL1        0.1223
     32 N         -11.9907  -16.9614   20.1539 N.ar    1  UNL1       -0.1464
     33 N         -10.6851  -16.2699   20.4128 N.ar    1  UNL1       -0.1463
     34 C         -10.0234  -16.3943   21.7532 C.ar    1  UNL1        0.1252
@<TRIPOS>BOND
     1    23    24    1
     2    24    25   ar
     3    25    22    1
     4    22    21    1
     5    21    20    1
     6    20    19    1
     7    19     1    1
     8     1     2    1
     9     2     3    1
    10     3     4    1
    11     4     5    1
    12     5     6    1
    13     6     9    1
    14     9    10   ar
    15    10    11   ar
    16    11    12   ar
    17    12    15    1
    18    15    16    1
    19    15    17    1
    20    15    18    1
    21    12    13   ar
    22    13    14   ar
    23     6     7    1
    24     7     8    1
    25    25    26   ar
    26    26    27   ar
    27    27    28   ar
    28    28    29    1
    29    29    30   ar
    30    30    31   ar
    31    31    32   ar
    32    32    33   ar
    33    33    34   ar
    34    28    24   ar
    35    34    29   ar
    36     8     1    1
    37     6     4    1
    38    14     9   ar
@<TRIPOS>MOLECULE
*****
 34 38 0 0 0
SMALL
GASTEIGER

@<TRIPOS>ATOM
      1 N         -10.5231  -17.6327   20.2373 N.3     1  UNL1       -0.2726
      2 C         -10.8786  -18.8290   19.4052 C.3     1  UNL1        0.0721
      3 C         -10.0033  -19.9756   18.9940 C.3     1  UNL1        0.0177
      4 C          -8.5564  -20.2092   19.3132 C.3     1  UNL1        0.0055
      5 C          -7.1308  -20.6308   19.5126 C.3     1  UNL1        0.0045
      6 C          -7.6274  -19.3537   20.1226 C.3     1  UNL1        0.0203
      7 C          -7.9159  -18.0534   20.8126 C.3     1  UNL1        0.0214
      8 C          -9.2046  -17.2874   20.8637 C.3     1  UNL1        0.0724
      9 C          -6.2346  -19.1993   20.6578 C.ar    1  UNL1       -0.0228
     10 C          -5.0619  -19.2559   19.7242 C.ar    1  UNL1       -0.0043
     11 C          -3.6691  -19.1016   20.2594 C.ar    1  UNL1        0.0035
     12 C          -3.4491  -18.8907   21.7281 C.ar    1  UNL1        0.0714
     13 C          -4.6219  -18.8342   22.6617 C.ar    1  UNL1        0.0035
     14 C          -6.0146  -18.9885   22.1265 C.ar    1  UNL1       -0.0043
     15 C          -2.0564  -18.7364   22.2633 C.3     1  UNL1        0.4186
     16 F          -0.6636  -18.5821   22.7985 F       1  UNL1       -0.1659
     17 F          -1.5164  -19.4635   21.0676 F       1  UNL1       -0.1659
     18 F          -2.5963  -18.0093   23.4590 F       1  UNL1       -0.1659
     19 C         -11.6329  -16.6518   20.4744 C.3     1  UNL1        0.0730
     20 C         -12.8669  -17.0794   21.2123 C.3     1  UNL1        0.0294
     21 C         -12.8394  -18.3097   22.0700 C.3     1  UNL1        0.0666
     22 S         -12.6889  -18.1839   23.5572 S.3     1  UNL1       -0.0756
     23 C         -10.6924  -15.6032   23.6114 C.3     1  UNL1        0.1340
     24 N         -10.4034  -16.9538   24.1965 N.ar    1  UNL1       -0.2884
     25 C         -11.3211  -18.1401   24.1715 C.ar    1  UNL1        0.1932
     26 N         -10.6310  -19.2747   24.8688 N.ar    1  UNL1       -0.1221
     27 N          -9.2868  -18.7898   25.3246 N.ar    1  UNL1       -0.1282
     28 C          -9.1462  -17.3554   24.9091 C.ar    1  UNL1        0.1684
     29 C          -7.9569  -16.4767   25.1619 C.ar    1  UNL1        0.0585
     30 C          -7.6159  -16.0607   26.5621 C.ar    1  UNL1        0.0272
     31 C          -6.4268  -15.1821   26.8149 C.ar    1  UNL1        0.1223
     32 N          -5.5786  -14.7195   25.6674 N.ar    1  UNL1       -0.1464
     33 N          -5.9196  -15.1356   24.2672 N.ar    1  UNL1       -0.1463
     34 C          -7.1087  -16.0142   24.0145 C.ar    1  UNL1        0.1252
@<TRIPOS>BOND
     1    23    24    1
     2    24    25   ar
     3    25    22    1
     4    22    21    1
     5    21    20    1
     6    20    19    1
     7    19     1    1
     8     1     2    1
     9     2     3    1
    10     3     4    1
    11     4     5    1
    12     5     6    1
    13     6     9    1
    14     9    10   ar
    15    10    11   ar
    16    11    12   ar
    17    12    15    1
    18    15    16    1
    19    15    17    1
    20    15    18    1
    21    12    13   ar
    22    13    14   ar
    23     6     7    1
    24     7     8    1
    25    25    26   ar
    26    26    27   ar
    27    27    28   ar
    28    28    29    1
    29    29    30   ar
    30    30    31   ar
    31    31    32   ar
    32    32    33   ar
    33    33    34   ar
    34    28    24   ar
    35    34    29   ar
    36     8     1    1
    37     6     4    1
    38    14     9   ar
