@<TRIPOS>MOLECULE
*****
 27 29 0 0 0
SMALL
GASTEIGER

@<TRIPOS>ATOM
      1 N          -7.5301  -19.7610   21.6397 N.am    1  UNL1       -0.3004
      2 C          -8.6027  -19.0296   20.8882 C.2     1  UNL1        0.2252
      3 O          -8.5996  -19.0278   19.3883 O.2     1  UNL1       -0.2750
      4 H          -7.5322  -19.7622   22.6241 H       1  UNL1        0.1497
      5 C          -6.4544  -20.4907   20.8910 C.3     1  UNL1        0.1163
      6 C          -2.3713  -18.6500   20.4559 C.ar    1  UNL1        0.0756
      7 C          -2.7133  -19.4335   21.6885 C.ar    1  UNL1        0.0062
      8 C          -4.0743  -20.0470   21.8335 C.ar    1  UNL1       -0.0024
      9 C          -5.0934  -19.8771   20.7460 C.ar    1  UNL1       -0.0026
     10 C          -4.7514  -19.0937   19.5134 C.ar    1  UNL1       -0.0024
     11 C          -3.3902  -18.4801   19.3684 C.ar    1  UNL1        0.0062
     12 C          -1.0101  -18.0365   20.3109 C.2     1  UNL1        0.3413
     13 O           0.1260  -18.8518   19.7683 O.2     1  UNL1       -0.2449
     14 C          -1.7660  -15.9167   21.6090 C.3     1  UNL1        0.2560
     15 O          -0.7853  -16.6078   20.7086 O.3     1  UNL1       -0.4413
     16 C          -9.6785  -18.2999   21.6369 C.3     1  UNL1        0.1154
     17 C         -10.0242  -18.7063   23.0387 C.3     1  UNL1        0.1377
     18 C         -10.8244  -19.7798   22.3625 C.3     1  UNL1        0.0335
     19 C          -9.1518  -17.5478   23.4219 C.3     1  UNL1        0.0613
     20 C          -9.1256  -17.4626   24.9194 C.3     1  UNL1        0.1290
     21 C          -9.1946  -17.5024   26.4172 C.3     1  UNL1        0.0305
     22 C          -8.4440  -16.4892   27.2297 C.3     1  UNL1        0.0025
     23 C          -7.6244  -15.4364   26.5443 C.3     1  UNL1        0.0002
     24 C          -7.5555  -15.3966   25.0464 C.3     1  UNL1        0.0025
     25 C          -8.3061  -16.4098   24.2340 C.3     1  UNL1        0.0305
     26 O          -9.9819  -18.5685   25.4616 O.3     1  UNL1       -0.2256
     27 O         -10.5373  -19.3371   24.2993 O.3     1  UNL1       -0.2251
@<TRIPOS>BOND
     1    14    15    1
     2    15    12    1
     3    12    13    2
     4    12     6    1
     5     6     7   ar
     6     7     8   ar
     7     8     9   ar
     8     9     5    1
     9     5     1    1
    10     1     2   am
    11     2     3    2
    12     2    16    1
    13    16    17    1
    14    17    18    1
    15    17    19    1
    16    19    20    1
    17    20    21    1
    18    21    22    1
    19    22    23    1
    20    23    24    1
    21    24    25    1
    22    20    26    1
    23    26    27    1
    24     9    10   ar
    25    10    11   ar
    26    11     6   ar
    27    27    17    1
    28    25    20    1
    29     1     4    1
@<TRIPOS>MOLECULE
*****
 27 29 0 0 0
SMALL
GASTEIGER

@<TRIPOS>ATOM
      1 N          -5.7597  -16.6904   24.0041 N.am    1  UNL1       -0.3004
      2 C          -6.5756  -15.6357   24.6912 C.2     1  UNL1        0.2252
      3 O          -5.8963  -14.5685   25.4970 O.2     1  UNL1       -0.2750
      4 H          -6.2056  -17.3909   23.4752 H       1  UNL1        0.1497
      5 C          -4.2645  -16.6777   24.1228 C.3     1  UNL1        0.1163
      6 C          -1.7191  -17.9161   20.6247 C.ar    1  UNL1        0.0756
      7 C          -1.7247  -16.4867   21.0793 C.ar    1  UNL1        0.0062
      8 C          -2.5732  -16.0739   22.2453 C.ar    1  UNL1       -0.0024
      9 C          -3.4160  -17.0905   22.9568 C.ar    1  UNL1       -0.0026
     10 C          -3.4104  -18.5199   22.5022 C.ar    1  UNL1       -0.0024
     11 C          -2.5618  -18.9327   21.3361 C.ar    1  UNL1        0.0062
     12 C          -0.8705  -18.3288   19.4586 C.2     1  UNL1        0.3413
     13 O           0.4368  -19.0261   19.6920 O.2     1  UNL1       -0.2449
     14 C          -2.5720  -17.2366   17.8271 C.3     1  UNL1        0.2560
     15 O          -1.3294  -18.0442   18.0592 O.3     1  UNL1       -0.4413
     16 C          -8.0709  -15.6484   24.5725 C.3     1  UNL1        0.1154
     17 C          -8.8487  -16.8495   25.0222 C.3     1  UNL1        0.1377
     18 C          -8.5112  -16.3571   26.3983 C.3     1  UNL1        0.0335
     19 C          -9.0236  -17.0908   23.5521 C.3     1  UNL1        0.0613
     20 C          -9.8391  -18.3382   23.3809 C.3     1  UNL1        0.1290
     21 C         -10.6584  -19.5945   23.3664 C.3     1  UNL1        0.0305
     22 C         -11.0721  -20.2051   22.0603 C.3     1  UNL1        0.0025
     23 C         -10.6664  -19.5593   20.7686 C.3     1  UNL1        0.0002
     24 C          -9.8471  -18.3030   20.7831 C.3     1  UNL1        0.0025
     25 C          -9.4334  -17.6925   22.0892 C.3     1  UNL1        0.0305
     26 O         -10.1681  -18.8678   24.7452 O.3     1  UNL1       -0.2256
     27 O          -9.5560  -17.9477   25.7596 O.3     1  UNL1       -0.2251
@<TRIPOS>BOND
     1    14    15    1
     2    15    12    1
     3    12    13    2
     4    12     6    1
     5     6     7   ar
     6     7     8   ar
     7     8     9   ar
     8     9     5    1
     9     5     1    1
    10     1     2   am
    11     2     3    2
    12     2    16    1
    13    16    17    1
    14    17    18    1
    15    17    19    1
    16    19    20    1
    17    20    21    1
    18    21    22    1
    19    22    23    1
    20    23    24    1
    21    24    25    1
    22    20    26    1
    23    26    27    1
    24     9    10   ar
    25    10    11   ar
    26    11     6   ar
    27    27    17    1
    28    25    20    1
    29     1     4    1
@<TRIPOS>MOLECULE
*****
 27 29 0 0 0
SMALL
GASTEIGER

@<TRIPOS>ATOM
      1 N          -7.2380  -20.1417   21.8963 N.am    1  UNL1       -0.3004
      2 C          -8.1181  -19.2640   21.0565 C.2     1  UNL1        0.2252
      3 O          -7.7719  -17.8170   20.8662 O.2     1  UNL1       -0.2750
      4 H          -7.4652  -21.0914   22.0211 H       1  UNL1        0.1497
      5 C          -6.0117  -19.5722   22.5458 C.3     1  UNL1        0.1163
      6 C          -2.3640  -18.6748   20.0682 C.ar    1  UNL1        0.0756
      7 C          -2.4014  -18.2854   21.5163 C.ar    1  UNL1        0.0062
      8 C          -3.6173  -18.5846   22.3421 C.ar    1  UNL1       -0.0024
      9 C          -4.7958  -19.2731   21.7199 C.ar    1  UNL1       -0.0026
     10 C          -4.7584  -19.6624   20.2718 C.ar    1  UNL1       -0.0024
     11 C          -3.5424  -19.3632   19.4460 C.ar    1  UNL1        0.0062
     12 C          -1.1480  -18.3756   19.2423 C.2     1  UNL1        0.3413
     13 O          -1.3006  -17.8978   17.8287 O.2     1  UNL1       -0.2449
     14 C           1.0190  -17.3555   20.2489 C.3     1  UNL1        0.2560
     15 O           0.2203  -18.5542   19.8302 O.3     1  UNL1       -0.4413
     16 C          -9.3445  -19.8335   20.4069 C.3     1  UNL1        0.1154
     17 C         -10.5742  -18.9881   20.2557 C.3     1  UNL1        0.1377
     18 C         -10.1647  -18.9281   18.8140 C.3     1  UNL1        0.0335
     19 C         -10.7267  -19.2249   21.7290 C.3     1  UNL1        0.0613
     20 C         -11.9653  -18.5132   22.1872 C.3     1  UNL1        0.1290
     21 C         -13.2222  -17.7553   22.4963 C.3     1  UNL1        0.0305
     22 C         -13.7543  -17.7255   23.8984 C.3     1  UNL1        0.0025
     23 C         -13.0294  -18.4535   24.9914 C.3     1  UNL1        0.0002
     24 C         -11.7725  -19.2114   24.6822 C.3     1  UNL1        0.0025
     25 C         -11.2404  -19.2413   23.2801 C.3     1  UNL1        0.0305
     26 O         -12.5782  -17.8367   20.9969 O.3     1  UNL1       -0.2256
     27 O         -11.7185  -18.1302   19.8032 O.3     1  UNL1       -0.2251
@<TRIPOS>BOND
     1    14    15    1
     2    15    12    1
     3    12    13    2
     4    12     6    1
     5     6     7   ar
     6     7     8   ar
     7     8     9   ar
     8     9     5    1
     9     5     1    1
    10     1     2   am
    11     2     3    2
    12     2    16    1
    13    16    17    1
    14    17    18    1
    15    17    19    1
    16    19    20    1
    17    20    21    1
    18    21    22    1
    19    22    23    1
    20    23    24    1
    21    24    25    1
    22    20    26    1
    23    26    27    1
    24     9    10   ar
    25    10    11   ar
    26    11     6   ar
    27    27    17    1
    28    25    20    1
    29     1     4    1
@<TRIPOS>MOLECULE
*****
 27 29 0 0 0
SMALL
GASTEIGER

@<TRIPOS>ATOM
      1 N          -5.7934  -17.0169   23.7653 N.am    1  UNL1       -0.3004
      2 C          -6.5500  -15.8241   24.2704 C.2     1  UNL1        0.2252
      3 O          -5.8299  -14.7397   25.0155 O.2     1  UNL1       -0.2750
      4 H          -6.2660  -17.7287   23.2763 H       1  UNL1        0.1497
      5 C          -4.3167  -17.1250   24.0054 C.3     1  UNL1        0.1163
      6 C          -1.5397  -18.0182   20.5790 C.ar    1  UNL1        0.0756
      7 C          -2.3856  -19.1105   21.1631 C.ar    1  UNL1        0.0062
      8 C          -3.3113  -18.8128   22.3052 C.ar    1  UNL1       -0.0024
      9 C          -3.3910  -17.4227   22.8632 C.ar    1  UNL1       -0.0026
     10 C          -2.5451  -16.3304   22.2791 C.ar    1  UNL1       -0.0024
     11 C          -1.6194  -16.6282   21.1369 C.ar    1  UNL1        0.0062
     12 C          -0.6140  -18.3160   19.4368 C.2     1  UNL1        0.3413
     13 O           0.7190  -18.9523   19.6981 O.2     1  UNL1       -0.2449
     14 C          -2.3528  -17.3377   17.7727 C.3     1  UNL1        0.2560
     15 O          -1.0214  -17.9776   18.0335 O.3     1  UNL1       -0.4413
     16 C          -8.0268  -15.7160   24.0304 C.3     1  UNL1        0.1154
     17 C          -8.5764  -15.8930   22.6461 C.3     1  UNL1        0.1377
     18 C          -7.9604  -14.5477   22.3993 C.3     1  UNL1        0.0335
     19 C          -9.0775  -17.2012   23.1822 C.3     1  UNL1        0.0613
     20 C          -9.8081  -17.9056   22.0776 C.3     1  UNL1        0.1290
     21 C         -10.5045  -18.4862   20.8826 C.3     1  UNL1        0.0305
     22 C         -11.1681  -19.8279   20.9798 C.3     1  UNL1        0.0025
     23 C         -11.1353  -20.5889   22.2720 C.3     1  UNL1        0.0002
     24 C         -10.4390  -20.0084   23.4669 C.3     1  UNL1        0.0025
     25 C          -9.7754  -18.6667   23.3697 C.3     1  UNL1        0.0305
     26 O          -9.7586  -17.0327   20.8587 O.3     1  UNL1       -0.2256
     27 O          -8.9973  -15.7887   21.2100 O.3     1  UNL1       -0.2251
@<TRIPOS>BOND
     1    14    15    1
     2    15    12    1
     3    12    13    2
     4    12     6    1
     5     6     7   ar
     6     7     8   ar
     7     8     9   ar
     8     9     5    1
     9     5     1    1
    10     1     2   am
    11     2     3    2
    12     2    16    1
    13    16    17    1
    14    17    18    1
    15    17    19    1
    16    19    20    1
    17    20    21    1
    18    21    22    1
    19    22    23    1
    20    23    24    1
    21    24    25    1
    22    20    26    1
    23    26    27    1
    24     9    10   ar
    25    10    11   ar
    26    11     6   ar
    27    27    17    1
    28    25    20    1
    29     1     4    1
@<TRIPOS>MOLECULE
*****
 27 29 0 0 0
SMALL
GASTEIGER

@<TRIPOS>ATOM
      1 N          -6.0916  -16.9603   24.2089 N.am    1  UNL1       -0.3004
      2 C          -7.2650  -16.3398   23.5100 C.2     1  UNL1        0.2252
      3 O          -7.0696  -15.1279   22.6480 O.2     1  UNL1       -0.2750
      4 H          -6.2198  -17.7557   24.7746 H       1  UNL1        0.1497
      5 C          -4.7229  -16.3687   24.0457 C.3     1  UNL1        0.1163
      6 C          -2.0463  -17.7756   20.7131 C.ar    1  UNL1        0.0756
      7 C          -3.1072  -18.6854   21.2579 C.ar    1  UNL1        0.0062
      8 C          -3.9993  -18.2165   22.3688 C.ar    1  UNL1       -0.0024
      9 C          -3.8307  -16.8377   22.9348 C.ar    1  UNL1       -0.0026
     10 C          -2.7699  -15.9278   22.3900 C.ar    1  UNL1       -0.0024
     11 C          -1.8777  -16.3969   21.2791 C.ar    1  UNL1        0.0062
     12 C          -1.1542  -18.2447   19.6021 C.2     1  UNL1        0.3413
     13 O           0.1659  -18.8826   19.9190 O.2     1  UNL1       -0.2449
     14 C          -2.7178  -17.1560   17.8358 C.3     1  UNL1        0.2560
     15 O          -1.5821  -18.0757   18.1745 O.3     1  UNL1       -0.4413
     16 C          -8.6338  -16.9314   23.6731 C.3     1  UNL1        0.1154
     17 C          -9.4804  -17.2070   22.4660 C.3     1  UNL1        0.1377
     18 C         -10.4064  -16.1995   23.0802 C.3     1  UNL1        0.0335
     19 C          -8.3773  -18.1569   22.1042 C.3     1  UNL1        0.0613
     20 C          -8.7358  -18.8090   20.8017 C.3     1  UNL1        0.1290
     21 C          -9.2257  -19.3752   19.5020 C.3     1  UNL1        0.0305
     22 C          -8.4038  -20.3951   18.7710 C.3     1  UNL1        0.0025
     23 C          -7.0921  -20.8488   19.3397 C.3     1  UNL1        0.0002
     24 C          -6.6022  -20.2826   20.6395 C.3     1  UNL1        0.0025
     25 C          -7.4240  -19.2627   21.3704 C.3     1  UNL1        0.0305
     26 O         -10.0604  -18.2621   20.3586 O.3     1  UNL1       -0.2256
     27 O         -10.5206  -17.2720   21.3872 O.3     1  UNL1       -0.2251
@<TRIPOS>BOND
     1    14    15    1
     2    15    12    1
     3    12    13    2
     4    12     6    1
     5     6     7   ar
     6     7     8   ar
     7     8     9   ar
     8     9     5    1
     9     5     1    1
    10     1     2   am
    11     2     3    2
    12     2    16    1
    13    16    17    1
    14    17    18    1
    15    17    19    1
    16    19    20    1
    17    20    21    1
    18    21    22    1
    19    22    23    1
    20    23    24    1
    21    24    25    1
    22    20    26    1
    23    26    27    1
    24     9    10   ar
    25    10    11   ar
    26    11     6   ar
    27    27    17    1
    28    25    20    1
    29     1     4    1
@<TRIPOS>MOLECULE
*****
 27 29 0 0 0
SMALL
GASTEIGER

@<TRIPOS>ATOM
      1 N          -7.8398  -15.8167   23.5064 N.am    1  UNL1       -0.3004
      2 C          -9.1591  -16.5102   23.6760 C.2     1  UNL1        0.2252
      3 O          -9.2641  -17.7161   24.5617 O.2     1  UNL1       -0.2750
      4 H          -7.7709  -15.0252   22.9250 H       1  UNL1        0.1497
      5 C          -6.6256  -16.3293   24.2225 C.3     1  UNL1        0.1163
      6 C          -3.3088  -18.2965   21.9034 C.ar    1  UNL1        0.0756
      7 C          -3.0656  -16.9891   22.5974 C.ar    1  UNL1        0.0062
      8 C          -4.1713  -16.3333   23.3704 C.ar    1  UNL1       -0.0024
      9 C          -5.5200  -16.9850   23.4495 C.ar    1  UNL1       -0.0026
     10 C          -5.7631  -18.2924   22.7556 C.ar    1  UNL1       -0.0024
     11 C          -4.6574  -18.9481   21.9825 C.ar    1  UNL1        0.0062
     12 C          -2.2030  -18.9522   21.1303 C.2     1  UNL1        0.3413
     13 O          -1.7308  -20.3233   21.5136 O.2     1  UNL1       -0.2449
     14 C          -0.0970  -17.9516   19.9843 C.3     1  UNL1        0.2560
     15 O          -1.5697  -18.2367   19.9742 O.3     1  UNL1       -0.4413
     16 C         -10.3734  -15.9976   22.9598 C.3     1  UNL1        0.1154
     17 C         -11.2226  -16.9373   22.1564 C.3     1  UNL1        0.1377
     18 C         -12.3610  -16.2616   22.8618 C.3     1  UNL1        0.0335
     19 C          -9.9068  -17.4166   21.6189 C.3     1  UNL1        0.0613
     20 C         -10.1808  -18.5114   20.6307 C.3     1  UNL1        0.1290
     21 C         -10.6071  -19.5846   19.6735 C.3     1  UNL1        0.0305
     22 C          -9.5768  -20.3480   18.8953 C.3     1  UNL1        0.0025
     23 C          -8.1202  -20.0381   19.0743 C.3     1  UNL1        0.0002
     24 C          -7.6938  -18.9649   20.0315 C.3     1  UNL1        0.0025
     25 C          -8.7241  -18.2015   20.8097 C.3     1  UNL1        0.0305
     26 O         -11.6659  -18.7087   20.5574 O.3     1  UNL1       -0.2256
     27 O         -12.3099  -17.7358   21.5004 O.3     1  UNL1       -0.2251
@<TRIPOS>BOND
     1    14    15    1
     2    15    12    1
     3    12    13    2
     4    12     6    1
     5     6     7   ar
     6     7     8   ar
     7     8     9   ar
     8     9     5    1
     9     5     1    1
    10     1     2   am
    11     2     3    2
    12     2    16    1
    13    16    17    1
    14    17    18    1
    15    17    19    1
    16    19    20    1
    17    20    21    1
    18    21    22    1
    19    22    23    1
    20    23    24    1
    21    24    25    1
    22    20    26    1
    23    26    27    1
    24     9    10   ar
    25    10    11   ar
    26    11     6   ar
    27    27    17    1
    28    25    20    1
    29     1     4    1
@<TRIPOS>MOLECULE
*****
 27 29 0 0 0
SMALL
GASTEIGER

@<TRIPOS>ATOM
      1 N         -14.6060   -2.0603   19.7439 N.am    1  UNL1       -0.3004
      2 C         -14.0848   -1.3216   18.5469 C.2     1  UNL1        0.2252
      3 O         -14.8598   -1.3327   17.2628 O.2     1  UNL1       -0.2750
      4 H         -14.0973   -2.0531   20.5868 H       1  UNL1        0.1497
      5 C         -15.9023   -2.8099   19.6566 C.3     1  UNL1        0.1163
      6 C         -15.8882   -7.2970   19.3173 C.ar    1  UNL1        0.0756
      7 C         -17.1891   -6.5560   19.4091 C.ar    1  UNL1        0.0062
      8 C         -17.1938   -5.0603   19.5222 C.ar    1  UNL1       -0.0024
      9 C         -15.8976   -4.3056   19.5435 C.ar    1  UNL1       -0.0026
     10 C         -14.5967   -5.0467   19.4517 C.ar    1  UNL1       -0.0024
     11 C         -14.5921   -6.5425   19.3386 C.ar    1  UNL1        0.0062
     12 C         -15.8835   -8.7928   19.2042 C.2     1  UNL1        0.3413
     13 O         -14.6515   -9.5052   18.7303 O.2     1  UNL1       -0.2449
     14 C         -17.9494  -10.1952   18.4863 C.3     1  UNL1        0.2560
     15 O         -17.1108   -9.5760   19.5650 O.3     1  UNL1       -0.4413
     16 C         -12.7884   -0.5720   18.6342 C.3     1  UNL1        0.1154
     17 C         -11.7044   -0.8291   17.6299 C.3     1  UNL1        0.1377
     18 C         -11.9983    0.5738   17.1876 C.3     1  UNL1        0.0335
     19 C         -11.6371   -2.1781   18.2821 C.3     1  UNL1        0.0613
     20 C         -10.5728   -2.9759   17.5884 C.3     1  UNL1        0.1290
     21 C          -9.4857   -3.6479   16.8032 C.3     1  UNL1        0.0305
     22 C          -9.0827   -5.0547   17.1326 C.3     1  UNL1        0.0025
     23 C          -9.7668   -5.7894   18.2472 C.3     1  UNL1        0.0002
     24 C         -10.8539   -5.1173   19.0324 C.3     1  UNL1        0.0025
     25 C         -11.2569   -3.7105   18.7029 C.3     1  UNL1        0.0305
     26 O          -9.9824   -2.1197   16.5074 O.3     1  UNL1       -0.2256
     27 O         -10.6818   -0.7929   16.5330 O.3     1  UNL1       -0.2251
@<TRIPOS>BOND
     1    14    15    1
     2    15    12    1
     3    12    13    2
     4    12     6    1
     5     6     7   ar
     6     7     8   ar
     7     8     9   ar
     8     9     5    1
     9     5     1    1
    10     1     2   am
    11     2     3    2
    12     2    16    1
    13    16    17    1
    14    17    18    1
    15    17    19    1
    16    19    20    1
    17    20    21    1
    18    21    22    1
    19    22    23    1
    20    23    24    1
    21    24    25    1
    22    20    26    1
    23    26    27    1
    24     9    10   ar
    25    10    11   ar
    26    11     6   ar
    27    27    17    1
    28    25    20    1
    29     1     4    1
@<TRIPOS>MOLECULE
*****
 27 29 0 0 0
SMALL
GASTEIGER

@<TRIPOS>ATOM
      1 N         -12.9910   -7.8205   18.9593 N.am    1  UNL1       -0.3004
      2 C         -12.2692   -7.6796   17.6519 C.2     1  UNL1        0.2252
      3 O         -13.0427   -7.6540   16.3671 O.2     1  UNL1       -0.2750
      4 H         -12.4833   -7.8373   19.8026 H       1  UNL1        0.1497
      5 C         -14.4863   -7.9360   18.9817 C.3     1  UNL1        0.1163
      6 C         -17.0135   -4.2889   19.7314 C.ar    1  UNL1        0.0756
      7 C         -17.6637   -5.5878   19.3571 C.ar    1  UNL1        0.0062
      8 C         -16.8213   -6.8035   19.1072 C.ar    1  UNL1       -0.0024
      9 C         -15.3287   -6.7203   19.2316 C.ar    1  UNL1       -0.0026
     10 C         -14.6786   -5.4214   19.6060 C.ar    1  UNL1       -0.0024
     11 C         -15.5211   -4.2057   19.8559 C.ar    1  UNL1        0.0062
     12 C         -17.8560   -3.0732   19.9814 C.2     1  UNL1        0.3413
     13 O         -19.0527   -3.1622   20.8814 O.2     1  UNL1       -0.2449
     14 C         -16.7587   -0.7216   20.1068 C.3     1  UNL1        0.2560
     15 O         -17.5018   -1.7688   19.3312 O.3     1  UNL1       -0.4413
     16 C         -10.7737   -7.5641   17.6295 C.3     1  UNL1        0.1154
     17 C         -10.0898   -6.5183   18.4591 C.3     1  UNL1        0.1377
     18 C          -9.2374   -7.6642   18.9177 C.3     1  UNL1        0.0335
     19 C         -11.0851   -5.5910   17.8271 C.3     1  UNL1        0.0613
     20 C         -10.8382   -4.2114   18.3620 C.3     1  UNL1        0.1290
     21 C         -10.4748   -2.8946   18.9816 C.3     1  UNL1        0.0305
     22 C         -11.2412   -1.6577   18.6178 C.3     1  UNL1        0.0025
     23 C         -12.3710   -1.7375   17.6343 C.3     1  UNL1        0.0002
     24 C         -12.7344   -3.0543   17.0147 C.3     1  UNL1        0.0025
     25 C         -11.9680   -4.2913   17.3786 C.3     1  UNL1        0.0305
     26 O          -9.6902   -4.2862   19.3246 O.3     1  UNL1       -0.2256
     27 O          -9.2276   -5.7119   19.3847 O.3     1  UNL1       -0.2251
@<TRIPOS>BOND
     1    14    15    1
     2    15    12    1
     3    12    13    2
     4    12     6    1
     5     6     7   ar
     6     7     8   ar
     7     8     9   ar
     8     9     5    1
     9     5     1    1
    10     1     2   am
    11     2     3    2
    12     2    16    1
    13    16    17    1
    14    17    18    1
    15    17    19    1
    16    19    20    1
    17    20    21    1
    18    21    22    1
    19    22    23    1
    20    23    24    1
    21    24    25    1
    22    20    26    1
    23    26    27    1
    24     9    10   ar
    25    10    11   ar
    26    11     6   ar
    27    27    17    1
    28    25    20    1
    29     1     4    1
@<TRIPOS>MOLECULE
*****
 27 29 0 0 0
SMALL
GASTEIGER

@<TRIPOS>ATOM
      1 N         -11.4479   -6.5612   16.7146 N.am    1  UNL1       -0.3004
      2 C         -10.4617   -6.3172   17.8183 C.2     1  UNL1        0.2252
      3 O         -10.4128   -7.2418   18.9983 O.2     1  UNL1       -0.2750
      4 H         -11.4800   -5.9544   15.9401 H       1  UNL1        0.1497
      5 C         -12.3851   -7.7299   16.7912 C.3     1  UNL1        0.1163
      6 C         -16.3166   -7.3238   18.9426 C.ar    1  UNL1        0.0756
      7 C         -15.6223   -8.6526   18.8934 C.ar    1  UNL1        0.0062
      8 C         -14.3118   -8.7879   18.1762 C.ar    1  UNL1       -0.0024
      9 C         -13.6956   -7.5945   17.5083 C.ar    1  UNL1       -0.0026
     10 C         -14.3898   -6.2658   17.5576 C.ar    1  UNL1       -0.0024
     11 C         -15.7004   -6.1305   18.2748 C.ar    1  UNL1        0.0062
     12 C         -17.6271   -7.1885   19.6598 C.2     1  UNL1        0.3413
     13 O         -18.3867   -5.8967   19.5965 O.2     1  UNL1       -0.2449
     14 C         -19.4632   -8.9917   20.0162 C.3     1  UNL1        0.2560
     15 O         -18.1778   -8.3451   20.4402 O.3     1  UNL1       -0.4413
     16 C          -9.5244   -5.1486   17.7417 C.3     1  UNL1        0.1154
     17 C         -10.0223   -3.8182   17.2600 C.3     1  UNL1        0.1377
     18 C          -8.8740   -3.9129   16.2996 C.3     1  UNL1        0.0335
     19 C         -11.0665   -4.0017   18.3211 C.3     1  UNL1        0.0613
     20 C         -11.9699   -2.8044   18.2945 C.3     1  UNL1        0.1290
     21 C         -12.7841   -1.5529   18.1504 C.3     1  UNL1        0.0305
     22 C         -13.9659   -1.3200   19.0444 C.3     1  UNL1        0.0025
     23 C         -14.3334   -2.3386   20.0824 C.3     1  UNL1        0.0002
     24 C         -13.5191   -3.5900   20.2265 C.3     1  UNL1        0.0025
     25 C         -12.3374   -3.8229   19.3325 C.3     1  UNL1        0.0305
     26 O         -11.4839   -1.8810   17.2169 O.3     1  UNL1       -0.2256
     27 O         -10.2803   -2.5076   16.5775 O.3     1  UNL1       -0.2251
@<TRIPOS>BOND
     1    14    15    1
     2    15    12    1
     3    12    13    2
     4    12     6    1
     5     6     7   ar
     6     7     8   ar
     7     8     9   ar
     8     9     5    1
     9     5     1    1
    10     1     2   am
    11     2     3    2
    12     2    16    1
    13    16    17    1
    14    17    18    1
    15    17    19    1
    16    19    20    1
    17    20    21    1
    18    21    22    1
    19    22    23    1
    20    23    24    1
    21    24    25    1
    22    20    26    1
    23    26    27    1
    24     9    10   ar
    25    10    11   ar
    26    11     6   ar
    27    27    17    1
    28    25    20    1
    29     1     4    1
