@<TRIPOS>MOLECULE
*****
 57 61 0 0 0
SMALL
GASTEIGER

@<TRIPOS>ATOM
      1 C           3.2667   -0.5660   22.3806 C.3     1  UNL1        0.0760
      2 C           3.9622   -0.3030   24.8701 C.2     1  UNL1        0.2404
      3 O           4.0011    1.1870   24.7018 O.2     1  UNL1       -0.2733
      4 N           3.5950   -1.1795   23.7096 N.am    1  UNL1       -0.3043
      5 H           3.5695   -2.1575   23.8201 H       1  UNL1        0.1494
      6 C           4.2905   -0.9165   26.1989 C.3     1  UNL1        0.1511
      7 N           7.0076   -3.7204   25.4881 N.am    1  UNL1       -0.2567
      8 C           8.2371   -3.9221   24.6529 C.3     1  UNL1        0.1168
      9 C           6.2638   -2.4193   25.4259 C.2     1  UNL1        0.3046
     10 O           6.7495   -1.3198   24.5286 O.2     1  UNL1       -0.2526
     11 N           5.0343   -2.2176   26.2611 N.am    1  UNL1       -0.2824
     12 H           4.7154   -2.9392   26.8500 H       1  UNL1        0.1514
     13 C           6.5218   -4.8198   26.3854 C.3     1  UNL1        0.1413
     14 C           6.6846   -3.7928   30.1250 C.ar    1  UNL1        0.0875
     15 N           6.4005   -3.4681   28.6883 N.ar    1  UNL1       -0.2453
     16 C           6.6745   -4.6968   27.8725 C.ar    1  UNL1        0.0858
     17 C           7.1279   -5.7807   28.8050 C.ar    1  UNL1        0.0530
     18 S           7.1342   -5.2220   30.1971 S.2     1  UNL1       -0.0705
     19 C           7.5233   -2.9108   32.4203 C.3     1  UNL1        0.0069
     20 C           6.5439   -2.8531   31.2857 C.3     1  UNL1        0.0465
     21 C           5.4237   -1.8558   31.3117 C.3     1  UNL1        0.0069
     22 C           3.8750   -0.2288   27.4657 C.3     1  UNL1        0.0463
     23 C           2.6422   -0.6774   28.1929 C.3     1  UNL1        0.0745
     24 N           1.3549    0.0732   28.0208 N.3     1  UNL1       -0.2684
     25 C           1.2290    1.1090   26.9433 C.3     1  UNL1        0.1046
     26 C          -0.0582    1.8596   26.7712 C.3     1  UNL1        0.1595
     27 O          -1.2196    1.5743   27.6766 O.3     1  UNL1       -0.3508
     28 C          -1.0937    0.5385   28.7542 C.3     1  UNL1        0.1595
     29 C           0.1936   -0.2121   28.9263 C.3     1  UNL1        0.1046
     30 C           1.9135    0.0374   22.1470 C.3     1  UNL1        0.0216
     31 C           1.1788   -0.2408   20.8692 C.3     1  UNL1        0.0217
     32 C           0.5161    0.8808   20.1256 C.3     1  UNL1        0.0792
     33 N          -0.5990    1.6510   20.7683 N.am    1  UNL1       -0.2720
     34 C          -0.3044    2.9256   21.5025 C.2     1  UNL1        0.4019
     35 O           1.1053    3.4297   21.5938 O.2     1  UNL1       -0.2264
     36 H          -1.5243    1.3201   20.7083 H       1  UNL1        0.1527
     37 O          -1.4196    3.6958   22.1452 O.3     1  UNL1       -0.4291
     38 C          -1.5463    3.7259   23.6395 C.3     1  UNL1        0.2447
     39 C          -2.9038    3.7129   24.2775 C.ar    1  UNL1        0.0714
     40 C          -3.1884    3.8095   25.7471 C.ar    1  UNL1        0.1053
     41 N          -4.6755    3.7573   25.9357 N.ar    1  UNL1       -0.2350
     42 C          -5.3102    3.6283   24.5827 C.ar    1  UNL1        0.1343
     43 S          -4.2152    3.6009   23.5579 S.2     1  UNL1       -0.0652
     44 C           0.9686    1.2321   18.7393 C.3     1  UNL1        0.0460
     45 C           2.3937    0.9982   18.3336 C.ar    1  UNL1       -0.0205
     46 C           2.7519   -0.2048   17.5125 C.ar    1  UNL1       -0.0042
     47 C           4.1770   -0.4386   17.1068 C.ar    1  UNL1       -0.0003
     48 C           5.2437    0.5306   17.5223 C.ar    1  UNL1       -0.0000
     49 C           4.8854    1.7337   18.3434 C.ar    1  UNL1       -0.0003
     50 C           3.4604    1.9675   18.7491 C.ar    1  UNL1       -0.0042
     51 C           4.2917   -0.5561   21.2855 C.3     1  UNL1        0.0459
     52 C           4.4933   -1.7756   20.4359 C.ar    1  UNL1       -0.0205
     53 C           3.3191   -2.6290   20.0580 C.ar    1  UNL1       -0.0042
     54 C           3.5207   -3.8486   19.2084 C.ar    1  UNL1       -0.0003
     55 C           4.8967   -4.2148   18.7366 C.ar    1  UNL1       -0.0000
     56 C           6.0710   -3.3615   19.1144 C.ar    1  UNL1       -0.0003
     57 C           5.8693   -2.1418   19.9641 C.ar    1  UNL1       -0.0042
@<TRIPOS>BOND
     1    19    20    1
     2    20    21    1
     3    20    14    1
     4    14    15   ar
     5    15    16   ar
     6    16    13    1
     7    13     7    1
     8     7     8    1
     9     7     9   am
    10     9    10    2
    11     9    11   am
    12    11     6    1
    13     6    22    1
    14    22    23    1
    15    23    24    1
    16    24    25    1
    17    25    26    1
    18    26    27    1
    19    27    28    1
    20    28    29    1
    21     6     2    1
    22     2     3    2
    23     2     4   am
    24     4     1    1
    25     1    30    1
    26    30    31    1
    27    32    31    1
    28    32    44    1
    29    44    45    1
    30    45    46   ar
    31    46    47   ar
    32    47    48   ar
    33    48    49   ar
    34    49    50   ar
    35    32    33    1
    36    33    34   am
    37    34    35    2
    38    34    37    1
    39    37    38    1
    40    38    39    1
    41    39    40   ar
    42    40    41   ar
    43    41    42   ar
    44    42    43   ar
    45     1    51    1
    46    51    52    1
    47    52    53   ar
    48    53    54   ar
    49    54    55   ar
    50    55    56   ar
    51    56    57   ar
    52    16    17   ar
    53    17    18   ar
    54    18    14   ar
    55    29    24    1
    56    50    45   ar
    57    43    39   ar
    58    57    52   ar
    59    11    12    1
    60     4     5    1
    61    33    36    1
@<TRIPOS>MOLECULE
*****
 57 61 0 0 0
SMALL
GASTEIGER

@<TRIPOS>ATOM
      1 C           4.1853   -0.3149   22.2841 C.3     1  UNL1        0.0760
      2 C           4.8700   -2.3292   23.7753 C.2     1  UNL1        0.2404
      3 O           4.2432   -3.2713   22.7905 O.2     1  UNL1       -0.2733
      4 N           4.8411   -0.8511   23.5221 N.am    1  UNL1       -0.3043
      5 H           5.2524   -0.2328   24.1684 H       1  UNL1        0.1494
      6 C           5.5257   -2.8653   25.0132 C.3     1  UNL1        0.1511
      7 N           5.6494   -0.3914   28.1139 N.am    1  UNL1       -0.2567
      8 C           6.3721    0.8500   28.5459 C.3     1  UNL1        0.1168
      9 C           5.9489   -1.0077   26.7795 C.2     1  UNL1        0.3046
     10 O           6.9712   -0.3826   25.8772 O.2     1  UNL1       -0.2526
     11 N           5.2262   -2.2490   26.3475 N.am    1  UNL1       -0.2824
     12 H           4.5553   -2.6593   26.9398 H       1  UNL1        0.1514
     13 C           4.6271   -1.0164   29.0162 C.3     1  UNL1        0.1413
     14 C           0.9728    0.2897   28.9398 C.ar    1  UNL1        0.0875
     15 N           2.0663   -0.5767   28.3886 N.ar    1  UNL1       -0.2453
     16 C           3.2971   -0.3524   29.2162 C.ar    1  UNL1        0.0858
     17 C           2.9643    0.6526   30.2788 C.ar    1  UNL1        0.0530
     18 S           1.5278    1.0495   30.1080 S.2     1  UNL1       -0.0705
     19 C          -0.7926    1.4485   27.4265 C.3     1  UNL1        0.0069
     20 C          -0.4294    0.3803   28.4149 C.3     1  UNL1        0.0465
     21 C          -1.4684   -0.5973   28.8784 C.3     1  UNL1        0.0069
     22 C           6.4811   -4.0178   24.9169 C.3     1  UNL1        0.0463
     23 C           7.5618   -4.1840   25.9436 C.3     1  UNL1        0.0745
     24 N           7.7672   -5.5130   26.6081 N.3     1  UNL1       -0.2684
     25 C           7.5820   -6.7793   25.8258 C.3     1  UNL1        0.1046
     26 C           7.7873   -8.1083   26.4903 C.3     1  UNL1        0.1595
     27 O           8.1778   -8.1710   27.9372 O.3     1  UNL1       -0.3508
     28 C           8.3630   -6.9047   28.7196 C.3     1  UNL1        0.1595
     29 C           8.1577   -5.5757   28.0550 C.3     1  UNL1        0.1046
     30 C           2.6969   -0.4083   22.1233 C.3     1  UNL1        0.0216
     31 C           2.1112   -0.8916   20.8297 C.3     1  UNL1        0.0217
     32 C           1.1812   -0.0089   20.0512 C.3     1  UNL1        0.0792
     33 N          -0.0123    0.6015   20.7242 N.am    1  UNL1       -0.2720
     34 C           0.0486    2.0155   21.2213 C.2     1  UNL1        0.4019
     35 O           1.3030    2.8189   21.0454 O.2     1  UNL1       -0.2264
     36 H          -0.8356    0.0742   20.8396 H       1  UNL1        0.1527
     37 O          -1.1449    2.6260   21.8942 O.3     1  UNL1       -0.4291
     38 C          -2.2428    3.2306   21.0703 C.3     1  UNL1        0.2447
     39 C          -3.5831    3.4992   21.6879 C.ar    1  UNL1        0.0714
     40 C          -3.8708    3.6125   23.1557 C.ar    1  UNL1        0.1053
     41 N          -5.3365    3.8850   23.3211 N.ar    1  UNL1       -0.2350
     42 C          -5.9548    3.9401   21.9556 C.ar    1  UNL1        0.1343
     43 S          -4.8711    3.7017   20.9462 S.2     1  UNL1       -0.0652
     44 C           1.4447    0.2633   18.5999 C.3     1  UNL1        0.0460
     45 C           2.8368    0.5746   18.1359 C.ar    1  UNL1       -0.0205
     46 C           3.6137   -0.4456   17.3577 C.ar    1  UNL1       -0.0042
     47 C           5.0057   -0.1343   16.8937 C.ar    1  UNL1       -0.0003
     48 C           5.6208    1.1973   17.2079 C.ar    1  UNL1       -0.0000
     49 C           4.8439    2.2174   17.9861 C.ar    1  UNL1       -0.0003
     50 C           3.4519    1.9061   18.4501 C.ar    1  UNL1       -0.0042
     51 C           5.0180    0.3147   21.2069 C.3     1  UNL1        0.0459
     52 C           5.9840   -0.5211   20.4207 C.ar    1  UNL1       -0.0205
     53 C           7.3369    0.0246   20.0717 C.ar    1  UNL1       -0.0042
     54 C           8.3028   -0.8112   19.2855 C.ar    1  UNL1       -0.0003
     55 C           7.9159   -2.1929   18.8481 C.ar    1  UNL1       -0.0000
     56 C           6.5630   -2.7387   19.1971 C.ar    1  UNL1       -0.0003
     57 C           5.5970   -1.9028   19.9834 C.ar    1  UNL1       -0.0042
@<TRIPOS>BOND
     1    19    20    1
     2    20    21    1
     3    20    14    1
     4    14    15   ar
     5    15    16   ar
     6    16    13    1
     7    13     7    1
     8     7     8    1
     9     7     9   am
    10     9    10    2
    11     9    11   am
    12    11     6    1
    13     6    22    1
    14    22    23    1
    15    23    24    1
    16    24    25    1
    17    25    26    1
    18    26    27    1
    19    27    28    1
    20    28    29    1
    21     6     2    1
    22     2     3    2
    23     2     4   am
    24     4     1    1
    25     1    30    1
    26    30    31    1
    27    32    31    1
    28    32    44    1
    29    44    45    1
    30    45    46   ar
    31    46    47   ar
    32    47    48   ar
    33    48    49   ar
    34    49    50   ar
    35    32    33    1
    36    33    34   am
    37    34    35    2
    38    34    37    1
    39    37    38    1
    40    38    39    1
    41    39    40   ar
    42    40    41   ar
    43    41    42   ar
    44    42    43   ar
    45     1    51    1
    46    51    52    1
    47    52    53   ar
    48    53    54   ar
    49    54    55   ar
    50    55    56   ar
    51    56    57   ar
    52    16    17   ar
    53    17    18   ar
    54    18    14   ar
    55    29    24    1
    56    50    45   ar
    57    43    39   ar
    58    57    52   ar
    59    11    12    1
    60     4     5    1
    61    33    36    1
@<TRIPOS>MOLECULE
*****
 57 61 0 0 0
SMALL
GASTEIGER

@<TRIPOS>ATOM
      1 C           3.2861   -0.4030   22.1156 C.3     1  UNL1        0.0760
      2 C           4.3175   -1.5965   24.1800 C.2     1  UNL1        0.2404
      3 O           4.2501   -2.9082   23.4553 O.2     1  UNL1       -0.2733
      4 N           3.8355   -0.3440   23.5101 N.am    1  UNL1       -0.3043
      5 H           3.8798    0.5169   23.9857 H       1  UNL1        0.1494
      6 C           4.8670   -1.5375   25.5744 C.3     1  UNL1        0.1511
      7 N           7.4081   -4.4431   26.4962 N.am    1  UNL1       -0.2567
      8 C           8.8003   -4.8832   26.1526 C.3     1  UNL1        0.1168
      9 C           6.8337   -3.2103   25.8635 C.2     1  UNL1        0.3046
     10 O           7.6514   -2.4176   24.8874 O.2     1  UNL1       -0.2526
     11 N           5.4415   -2.7702   26.2071 N.am    1  UNL1       -0.2824
     12 H           4.9047   -3.2905   26.8478 H       1  UNL1        0.1514
     13 C           6.5904   -5.2358   27.4723 C.3     1  UNL1        0.1413
     14 C           6.7340   -3.9106   31.1177 C.ar    1  UNL1        0.0875
     15 N           6.4528   -3.7042   29.6588 N.ar    1  UNL1       -0.2453
     16 C           6.7372   -4.9927   28.9452 C.ar    1  UNL1        0.0858
     17 C           7.1942   -5.9952   29.9631 C.ar    1  UNL1        0.0530
     18 S           7.1922   -5.3265   31.3058 S.2     1  UNL1       -0.0705
     19 C           7.7677   -2.0684   32.6302 C.3     1  UNL1        0.0069
     20 C           6.5835   -2.8816   32.1987 C.3     1  UNL1        0.0465
     21 C           5.2487   -2.6659   32.8482 C.3     1  UNL1        0.0069
     22 C           4.8419   -0.2456   26.3363 C.3     1  UNL1        0.0463
     23 C           4.1384   -0.1683   27.6588 C.3     1  UNL1        0.0745
     24 N           2.6702    0.1352   27.7108 N.3     1  UNL1       -0.2684
     25 C           1.8441   -0.3518   28.8641 C.3     1  UNL1        0.1046
     26 C           0.3761   -0.0484   28.9160 C.3     1  UNL1        0.1595
     27 O          -0.2658    0.7421   27.8146 O.3     1  UNL1       -0.3508
     28 C           0.5604    1.2291   26.6613 C.3     1  UNL1        0.1595
     29 C           2.0284    0.9256   26.6094 C.3     1  UNL1        0.1046
     30 C           1.8035   -0.3636   21.8913 C.3     1  UNL1        0.0216
     31 C           1.2520   -0.4766   20.5010 C.3     1  UNL1        0.0217
     32 C           0.6205    0.7156   19.8453 C.3     1  UNL1        0.0792
     33 N          -0.5168    1.4262   20.5172 N.am    1  UNL1       -0.2720
     34 C          -0.2507    2.6381   21.3603 C.2     1  UNL1        0.4019
     35 O           1.1526    3.1393   21.5314 O.2     1  UNL1       -0.2264
     36 H          -1.4379    1.0973   20.4049 H       1  UNL1        0.1527
     37 O          -1.3881    3.3487   22.0322 O.3     1  UNL1       -0.4291
     38 C          -2.1053    4.4571   21.3202 C.3     1  UNL1        0.2447
     39 C          -3.0561    4.1400   20.2042 C.ar    1  UNL1        0.0714
     40 C          -4.4466    3.5987   20.3576 C.ar    1  UNL1        0.1053
     41 N          -5.0332    3.4326   18.9871 N.ar    1  UNL1       -0.2350
     42 C          -4.0053    3.8714   17.9866 C.ar    1  UNL1        0.1343
     43 S          -2.7834    4.3086   18.7389 S.2     1  UNL1       -0.0652
     44 C           1.1264    1.1972   18.5179 C.3     1  UNL1        0.0460
     45 C           2.5697    1.0125   18.1534 C.ar    1  UNL1       -0.0205
     46 C           3.0038   -0.2145   17.4077 C.ar    1  UNL1       -0.0042
     47 C           4.4471   -0.3991   17.0433 C.ar    1  UNL1       -0.0003
     48 C           5.4562    0.6432   17.4244 C.ar    1  UNL1       -0.0000
     49 C           5.0220    1.8702   18.1701 C.ar    1  UNL1       -0.0003
     50 C           3.5788    2.0548   18.5345 C.ar    1  UNL1       -0.0042
     51 C           4.2193   -0.5015   20.9453 C.3     1  UNL1        0.0459
     52 C           4.4857   -1.8331   20.3085 C.ar    1  UNL1       -0.0205
     53 C           3.3408   -2.7172   19.9115 C.ar    1  UNL1       -0.0042
     54 C           3.6073   -4.0488   19.2747 C.ar    1  UNL1       -0.0003
     55 C           5.0187   -4.4965   19.0348 C.ar    1  UNL1       -0.0000
     56 C           6.1637   -3.6125   19.4317 C.ar    1  UNL1       -0.0003
     57 C           5.8971   -2.2807   20.0686 C.ar    1  UNL1       -0.0042
@<TRIPOS>BOND
     1    19    20    1
     2    20    21    1
     3    20    14    1
     4    14    15   ar
     5    15    16   ar
     6    16    13    1
     7    13     7    1
     8     7     8    1
     9     7     9   am
    10     9    10    2
    11     9    11   am
    12    11     6    1
    13     6    22    1
    14    22    23    1
    15    23    24    1
    16    24    25    1
    17    25    26    1
    18    26    27    1
    19    27    28    1
    20    28    29    1
    21     6     2    1
    22     2     3    2
    23     2     4   am
    24     4     1    1
    25     1    30    1
    26    30    31    1
    27    32    31    1
    28    32    44    1
    29    44    45    1
    30    45    46   ar
    31    46    47   ar
    32    47    48   ar
    33    48    49   ar
    34    49    50   ar
    35    32    33    1
    36    33    34   am
    37    34    35    2
    38    34    37    1
    39    37    38    1
    40    38    39    1
    41    39    40   ar
    42    40    41   ar
    43    41    42   ar
    44    42    43   ar
    45     1    51    1
    46    51    52    1
    47    52    53   ar
    48    53    54   ar
    49    54    55   ar
    50    55    56   ar
    51    56    57   ar
    52    16    17   ar
    53    17    18   ar
    54    18    14   ar
    55    29    24    1
    56    50    45   ar
    57    43    39   ar
    58    57    52   ar
    59    11    12    1
    60     4     5    1
    61    33    36    1
@<TRIPOS>MOLECULE
*****
 57 61 0 0 0
SMALL
GASTEIGER

@<TRIPOS>ATOM
      1 C           0.5309    0.7591   19.9802 C.3     1  UNL1        0.0760
      2 C          -0.3371    3.0548   20.8325 C.2     1  UNL1        0.2404
      3 O           1.0443    3.6249   20.7038 O.2     1  UNL1       -0.2733
      4 N          -0.5938    1.6219   20.4707 N.am    1  UNL1       -0.3043
      5 H          -1.5005    1.2477   20.5552 H       1  UNL1        0.1494
      6 C          -1.4619    3.9175   21.3230 C.3     1  UNL1        0.1511
      7 N          -3.3370    3.9303   24.8207 N.am    1  UNL1       -0.2567
      8 C          -4.7064    3.6684   25.3741 C.3     1  UNL1        0.1168
      9 C          -3.0841    3.7930   23.3486 C.2     1  UNL1        0.3046
     10 O          -4.2006    3.3938   22.4298 O.2     1  UNL1       -0.2526
     11 N          -1.7148    4.0548   22.7952 N.am    1  UNL1       -0.2824
     12 H          -0.9820    4.3168   23.3982 H       1  UNL1        0.1514
     13 C          -2.2206    4.3294   25.7394 C.3     1  UNL1        0.1413
     14 C          -0.3435    1.4137   27.4831 C.ar    1  UNL1        0.0875
     15 N          -1.5857    2.2240   27.2592 N.ar    1  UNL1       -0.2453
     16 C          -1.2673    3.2928   26.2559 C.ar    1  UNL1        0.0858
     17 C           0.1717    3.1429   25.8599 C.ar    1  UNL1        0.0530
     18 S           0.7426    1.9815   26.6183 S.2     1  UNL1       -0.0705
     19 C           1.1454   -0.1899   28.8837 C.3     1  UNL1        0.0069
     20 C          -0.2107    0.2412   28.4093 C.3     1  UNL1        0.0465
     21 C          -1.4340   -0.5000   28.8610 C.3     1  UNL1        0.0069
     22 C          -2.3338    4.6429   20.3414 C.3     1  UNL1        0.0463
     23 C          -2.8824    3.9191   19.1477 C.3     1  UNL1        0.0745
     24 N          -4.2822    4.1923   18.6828 N.3     1  UNL1       -0.2684
     25 C          -4.5362    5.2475   17.6475 C.3     1  UNL1        0.1046
     26 C          -5.9359    5.5206   17.1827 C.3     1  UNL1        0.1595
     27 O          -7.0817    4.7386   17.7533 O.3     1  UNL1       -0.3508
     28 C          -6.8277    3.6834   18.7886 C.3     1  UNL1        0.1595
     29 C          -5.4280    3.4102   19.2534 C.3     1  UNL1        0.1046
     30 C           1.1904   -0.2145   20.9113 C.3     1  UNL1        0.0216
     31 C           2.0623    0.2856   22.0247 C.3     1  UNL1        0.0217
     32 C           3.2816   -0.4895   22.4284 C.3     1  UNL1        0.0792
     33 N           3.2909   -1.2541   23.7189 N.am    1  UNL1       -0.2720
     34 C           3.5854   -0.5460   25.0081 C.2     1  UNL1        0.4019
     35 O           3.8706    0.9266   25.0068 O.2     1  UNL1       -0.2264
     36 H           3.1038   -2.2206   23.7197 H       1  UNL1        0.1527
     37 O           3.5948   -1.3106   26.2985 O.3     1  UNL1       -0.4291
     38 C           4.8951   -1.6088   26.9843 C.3     1  UNL1        0.2447
     39 C           6.1400   -1.8171   26.1737 C.ar    1  UNL1        0.0714
     40 C           7.2137   -0.7986   25.9295 C.ar    1  UNL1        0.1053
     41 N           8.2670   -1.4325   25.0699 N.ar    1  UNL1       -0.2350
     42 C           7.8442   -2.8428   24.7830 C.ar    1  UNL1        0.1343
     43 S           6.5296   -3.0804   25.4652 S.2     1  UNL1       -0.0652
     44 C           4.4914   -0.4998   21.5417 C.3     1  UNL1        0.0460
     45 C           4.7015   -1.6255   20.5728 C.ar    1  UNL1       -0.0205
     46 C           6.0728   -1.9039   20.0325 C.ar    1  UNL1       -0.0042
     47 C           6.2829   -3.0295   19.0636 C.ar    1  UNL1       -0.0003
     48 C           5.1216   -3.8768   18.6350 C.ar    1  UNL1       -0.0000
     49 C           3.7503   -3.5984   19.1753 C.ar    1  UNL1       -0.0003
     50 C           3.5402   -2.4727   20.1442 C.ar    1  UNL1       -0.0042
     51 C           0.9961    0.8700   18.5584 C.3     1  UNL1        0.0459
     52 C           2.4602    0.7973   18.2405 C.ar    1  UNL1       -0.0205
     53 C           2.9910   -0.3289   17.4039 C.ar    1  UNL1       -0.0042
     54 C           4.4551   -0.4016   17.0860 C.ar    1  UNL1       -0.0003
     55 C           5.3885    0.6519   17.6048 C.ar    1  UNL1       -0.0000
     56 C           4.8577    1.7781   18.4414 C.ar    1  UNL1       -0.0003
     57 C           3.3935    1.8507   18.7593 C.ar    1  UNL1       -0.0042
@<TRIPOS>BOND
     1    19    20    1
     2    20    21    1
     3    20    14    1
     4    14    15   ar
     5    15    16   ar
     6    16    13    1
     7    13     7    1
     8     7     8    1
     9     7     9   am
    10     9    10    2
    11     9    11   am
    12    11     6    1
    13     6    22    1
    14    22    23    1
    15    23    24    1
    16    24    25    1
    17    25    26    1
    18    26    27    1
    19    27    28    1
    20    28    29    1
    21     6     2    1
    22     2     3    2
    23     2     4   am
    24     4     1    1
    25     1    30    1
    26    30    31    1
    27    32    31    1
    28    32    44    1
    29    44    45    1
    30    45    46   ar
    31    46    47   ar
    32    47    48   ar
    33    48    49   ar
    34    49    50   ar
    35    32    33    1
    36    33    34   am
    37    34    35    2
    38    34    37    1
    39    37    38    1
    40    38    39    1
    41    39    40   ar
    42    40    41   ar
    43    41    42   ar
    44    42    43   ar
    45     1    51    1
    46    51    52    1
    47    52    53   ar
    48    53    54   ar
    49    54    55   ar
    50    55    56   ar
    51    56    57   ar
    52    16    17   ar
    53    17    18   ar
    54    18    14   ar
    55    29    24    1
    56    50    45   ar
    57    43    39   ar
    58    57    52   ar
    59    11    12    1
    60     4     5    1
    61    33    36    1
@<TRIPOS>MOLECULE
*****
 57 61 0 0 0
SMALL
GASTEIGER

@<TRIPOS>ATOM
      1 C           4.1434   -1.0331   24.5012 C.3     1  UNL1        0.0760
      2 C           4.3887   -0.7907   27.0764 C.2     1  UNL1        0.2404
      3 O           3.1735   -1.6478   27.2728 O.2     1  UNL1       -0.2733
      4 N           4.8737   -0.4834   25.6906 N.am    1  UNL1       -0.3043
      5 H           5.6714    0.0791   25.5617 H       1  UNL1        0.1494
      6 C           5.1190   -0.2410   28.2656 C.3     1  UNL1        0.1511
      7 N           5.8984   -2.4081   31.4977 N.am    1  UNL1       -0.2567
      8 C           5.2861   -2.7142   32.8324 C.3     1  UNL1        0.1168
      9 C           5.2026   -1.4776   30.5490 C.2     1  UNL1        0.3046
     10 O           3.8944   -0.8533   30.9349 O.2     1  UNL1       -0.2526
     11 N           5.8149   -1.1715   29.2144 N.am    1  UNL1       -0.2824
     12 H           6.6735   -1.5812   28.9611 H       1  UNL1        0.1514
     13 C           7.2065   -3.0324   31.1118 C.3     1  UNL1        0.1413
     14 C           7.5893   -4.6049   27.5839 C.ar    1  UNL1        0.0875
     15 N           7.6029   -3.4141   28.4960 N.ar    1  UNL1       -0.2453
     16 C           7.2950   -3.8905   29.8847 C.ar    1  UNL1        0.0858
     17 C           7.0911   -5.3755   29.8307 C.ar    1  UNL1        0.0530
     18 S           7.2730   -5.8171   28.4088 S.2     1  UNL1       -0.0705
     19 C           7.5897   -5.8150   25.2849 C.3     1  UNL1        0.0069
     20 C           7.8468   -4.5865   26.1063 C.3     1  UNL1        0.0465
     21 C           8.3614   -3.3397   25.4500 C.3     1  UNL1        0.0069
     22 C           5.1535    1.2392   28.5063 C.3     1  UNL1        0.0463
     23 C           3.9213    2.0645   28.2816 C.3     1  UNL1        0.0745
     24 N           2.7183    1.8696   29.1562 N.3     1  UNL1       -0.2684
     25 C           2.7271    2.3769   30.5677 C.3     1  UNL1        0.1046
     26 C           1.5241    2.1820   31.4423 C.3     1  UNL1        0.1595
     27 O           0.3123    1.4797   30.9053 O.3     1  UNL1       -0.3508
     28 C           0.3035    0.9724   29.4937 C.3     1  UNL1        0.1595
     29 C           1.5065    1.1673   28.6192 C.3     1  UNL1        0.1046
     30 C           3.0414   -0.2390   23.8650 C.3     1  UNL1        0.0216
     31 C           3.3251    0.6031   22.6565 C.3     1  UNL1        0.0217
     32 C           2.6910    0.2637   21.3402 C.3     1  UNL1        0.0792
     33 N           2.1618    1.3560   20.4588 N.am    1  UNL1       -0.2720
     34 C           0.6904    1.4503   20.1828 C.2     1  UNL1        0.4019
     35 O          -0.2518    0.4524   20.7881 O.2     1  UNL1       -0.2264
     36 H           2.7801    2.0110   20.0615 H       1  UNL1        0.1527
     37 O           0.1612    2.5427   19.3015 O.3     1  UNL1       -0.4291
     38 C          -0.4688    3.7596   19.9115 C.3     1  UNL1        0.2447
     39 C          -1.8278    3.6657   20.5395 C.ar    1  UNL1        0.0714
     40 C          -3.1304    3.5357   19.8072 C.ar    1  UNL1        0.1053
     41 N          -4.2304    3.4750   20.8252 N.ar    1  UNL1       -0.2350
     42 C          -3.6076    3.5676   22.1867 C.ar    1  UNL1        0.1343
     43 S          -2.1227    3.6855   22.0101 S.2     1  UNL1       -0.0652
     44 C           2.5860   -1.1680   20.9052 C.3     1  UNL1        0.0460
     45 C           3.6341   -1.7584   20.0090 C.ar    1  UNL1       -0.0205
     46 C           4.6534   -0.8696   19.3603 C.ar    1  UNL1       -0.0042
     47 C           5.7014   -1.4599   18.4641 C.ar    1  UNL1       -0.0003
     48 C           5.7300   -2.9391   18.2166 C.ar    1  UNL1       -0.0000
     49 C           4.7107   -3.8279   18.8653 C.ar    1  UNL1       -0.0003
     50 C           3.6627   -3.2375   19.7615 C.ar    1  UNL1       -0.0042
     51 C           4.5152   -2.3769   23.9482 C.3     1  UNL1        0.0459
     52 C           5.6809   -2.5067   23.0131 C.ar    1  UNL1       -0.0205
     53 C           6.4525   -1.2877   22.6026 C.ar    1  UNL1       -0.0042
     54 C           7.6181   -1.4175   21.6675 C.ar    1  UNL1       -0.0003
     55 C           8.0122   -2.7664   21.1429 C.ar    1  UNL1       -0.0000
     56 C           7.2406   -3.9855   21.5534 C.ar    1  UNL1       -0.0003
     57 C           6.0749   -3.8556   22.4885 C.ar    1  UNL1       -0.0042
@<TRIPOS>BOND
     1    19    20    1
     2    20    21    1
     3    20    14    1
     4    14    15   ar
     5    15    16   ar
     6    16    13    1
     7    13     7    1
     8     7     8    1
     9     7     9   am
    10     9    10    2
    11     9    11   am
    12    11     6    1
    13     6    22    1
    14    22    23    1
    15    23    24    1
    16    24    25    1
    17    25    26    1
    18    26    27    1
    19    27    28    1
    20    28    29    1
    21     6     2    1
    22     2     3    2
    23     2     4   am
    24     4     1    1
    25     1    30    1
    26    30    31    1
    27    32    31    1
    28    32    44    1
    29    44    45    1
    30    45    46   ar
    31    46    47   ar
    32    47    48   ar
    33    48    49   ar
    34    49    50   ar
    35    32    33    1
    36    33    34   am
    37    34    35    2
    38    34    37    1
    39    37    38    1
    40    38    39    1
    41    39    40   ar
    42    40    41   ar
    43    41    42   ar
    44    42    43   ar
    45     1    51    1
    46    51    52    1
    47    52    53   ar
    48    53    54   ar
    49    54    55   ar
    50    55    56   ar
    51    56    57   ar
    52    16    17   ar
    53    17    18   ar
    54    18    14   ar
    55    29    24    1
    56    50    45   ar
    57    43    39   ar
    58    57    52   ar
    59    11    12    1
    60     4     5    1
    61    33    36    1
@<TRIPOS>MOLECULE
*****
 57 61 0 0 0
SMALL
GASTEIGER

@<TRIPOS>ATOM
      1 C           3.5609   -0.7050   22.0400 C.3     1  UNL1        0.0760
      2 C           4.9110   -0.5879   24.2568 C.2     1  UNL1        0.2404
      3 O           5.5204    0.7102   23.8170 O.2     1  UNL1       -0.2733
      4 N           3.9312   -1.2955   23.3683 N.am    1  UNL1       -0.3043
      5 H           3.5312   -2.1475   23.6570 H       1  UNL1        0.1494
      6 C           5.2812   -1.1784   25.5849 C.3     1  UNL1        0.1511
      7 N           3.9297    0.1173   29.0841 N.am    1  UNL1       -0.2567
      8 C           4.3675    1.0067   30.2099 C.3     1  UNL1        0.1168
      9 C           4.8243   -0.0859   27.8974 C.2     1  UNL1        0.3046
     10 O           6.1567    0.6003   27.8364 O.2     1  UNL1       -0.2526
     11 N           4.3866   -0.9753   26.7717 N.am    1  UNL1       -0.2824
     12 H           3.5121   -1.4257   26.8117 H       1  UNL1        0.1514
     13 C           2.5973   -0.5689   29.1452 C.3     1  UNL1        0.1413
     14 C          -0.0127    1.2425   26.9153 C.ar    1  UNL1        0.0875
     15 N           1.3905    0.7833   27.1803 N.ar    1  UNL1       -0.2453
     16 C           1.4005    0.0575   28.4931 C.ar    1  UNL1        0.0858
     17 C           0.0035    0.0683   29.0393 C.ar    1  UNL1        0.0530
     18 S          -0.8699    0.8006   28.0642 S.2     1  UNL1       -0.0705
     19 C          -1.6393    2.9505   25.8259 C.3     1  UNL1        0.0069
     20 C          -0.4771    2.0091   25.7125 C.3     1  UNL1        0.0465
     21 C           0.2208    1.8342   24.3963 C.3     1  UNL1        0.0069
     22 C           6.5462   -1.9722   25.7265 C.3     1  UNL1        0.0463
     23 C           6.4882   -3.4693   25.7971 C.3     1  UNL1        0.0745
     24 N           6.7453   -4.1693   27.0987 N.3     1  UNL1       -0.2684
     25 C           7.3031   -5.5617   27.1040 C.3     1  UNL1        0.1046
     26 C           7.5602   -6.2616   28.4056 C.3     1  UNL1        0.1595
     27 O           7.2594   -5.5691   29.7017 O.3     1  UNL1       -0.3508
     28 C           6.7016   -4.1768   29.6964 C.3     1  UNL1        0.1595
     29 C           6.4445   -3.4769   28.3948 C.3     1  UNL1        0.1046
     30 C           2.3023    0.0990   21.9014 C.3     1  UNL1        0.0216
     31 C           1.2368   -0.3358   20.9393 C.3     1  UNL1        0.0217
     32 C           0.6215    0.6600   20.0012 C.3     1  UNL1        0.0792
     33 N          -0.4280    1.6095   20.4982 N.am    1  UNL1       -0.2720
     34 C          -0.0490    3.0056   20.8949 C.2     1  UNL1        0.4019
     35 O           1.3795    3.4521   20.7946 O.2     1  UNL1       -0.2264
     36 H          -1.3655    1.3164   20.5640 H       1  UNL1        0.1527
     37 O          -1.0985    3.9551   21.3919 O.3     1  UNL1       -0.4291
     38 C          -2.2306    3.4474   22.2347 C.3     1  UNL1        0.2447
     39 C          -3.6251    3.9465   21.9969 C.ar    1  UNL1        0.0714
     40 C          -4.0009    5.1862   21.2408 C.ar    1  UNL1        0.1053
     41 N          -5.4966    5.2994   21.2501 N.ar    1  UNL1       -0.2350
     42 C          -6.0452    4.1296   22.0121 C.ar    1  UNL1        0.1343
     43 S          -4.8885    3.2934   22.4736 S.2     1  UNL1       -0.0652
     44 C           1.0558    0.7062   18.5663 C.3     1  UNL1        0.0460
     45 C           2.5164    0.7114   18.2245 C.ar    1  UNL1       -0.0205
     46 C           3.3977    1.8212   18.7158 C.ar    1  UNL1       -0.0042
     47 C           4.8582    1.8264   18.3740 C.ar    1  UNL1       -0.0003
     48 C           5.4374    0.7217   17.5408 C.ar    1  UNL1       -0.0000
     49 C           4.5561   -0.3882   17.0495 C.ar    1  UNL1       -0.0003
     50 C           3.0956   -0.3933   17.3913 C.ar    1  UNL1       -0.0042
     51 C           4.4494   -0.9186   20.8505 C.3     1  UNL1        0.0459
     52 C           4.5159   -2.2669   20.1965 C.ar    1  UNL1       -0.0205
     53 C           5.8432   -2.9327   19.9842 C.ar    1  UNL1       -0.0042
     54 C           5.9098   -4.2810   19.3303 C.ar    1  UNL1       -0.0003
     55 C           4.6491   -4.9635   18.8886 C.ar    1  UNL1       -0.0000
     56 C           3.3218   -4.2976   19.1009 C.ar    1  UNL1       -0.0003
     57 C           3.2553   -2.9492   19.7549 C.ar    1  UNL1       -0.0042
@<TRIPOS>BOND
     1    19    20    1
     2    20    21    1
     3    20    14    1
     4    14    15   ar
     5    15    16   ar
     6    16    13    1
     7    13     7    1
     8     7     8    1
     9     7     9   am
    10     9    10    2
    11     9    11   am
    12    11     6    1
    13     6    22    1
    14    22    23    1
    15    23    24    1
    16    24    25    1
    17    25    26    1
    18    26    27    1
    19    27    28    1
    20    28    29    1
    21     6     2    1
    22     2     3    2
    23     2     4   am
    24     4     1    1
    25     1    30    1
    26    30    31    1
    27    32    31    1
    28    32    44    1
    29    44    45    1
    30    45    46   ar
    31    46    47   ar
    32    47    48   ar
    33    48    49   ar
    34    49    50   ar
    35    32    33    1
    36    33    34   am
    37    34    35    2
    38    34    37    1
    39    37    38    1
    40    38    39    1
    41    39    40   ar
    42    40    41   ar
    43    41    42   ar
    44    42    43   ar
    45     1    51    1
    46    51    52    1
    47    52    53   ar
    48    53    54   ar
    49    54    55   ar
    50    55    56   ar
    51    56    57   ar
    52    16    17   ar
    53    17    18   ar
    54    18    14   ar
    55    29    24    1
    56    50    45   ar
    57    43    39   ar
    58    57    52   ar
    59    11    12    1
    60     4     5    1
    61    33    36    1
@<TRIPOS>MOLECULE
*****
 57 61 0 0 0
SMALL
GASTEIGER

@<TRIPOS>ATOM
      1 C           2.7229    0.1163   24.2286 C.3     1  UNL1        0.0760
      2 C           1.6798    1.3975   26.2337 C.2     1  UNL1        0.2404
      3 O           3.0377    1.9096   26.6129 O.2     1  UNL1       -0.2733
      4 N           1.5224    0.5009   25.0416 N.am    1  UNL1       -0.3043
      5 H           0.6311    0.1648   24.7927 H       1  UNL1        0.1494
      6 C           0.4793    1.7821   27.0466 C.3     1  UNL1        0.1511
      7 N           1.1333    3.4073   30.6077 N.am    1  UNL1       -0.2567
      8 C           1.5485    4.7239   31.1942 C.3     1  UNL1        0.1168
      9 C           1.0139    3.2530   29.1204 C.2     1  UNL1        0.3046
     10 O           1.3097    4.4153   28.2197 O.2     1  UNL1       -0.2526
     11 N           0.5987    1.9363   28.5339 N.am    1  UNL1       -0.2824
     12 H           0.4045    1.1734   29.1251 H       1  UNL1        0.1514
     13 C           0.8374    2.2449   31.5084 C.3     1  UNL1        0.1413
     14 C           3.6501   -0.2754   32.4042 C.ar    1  UNL1        0.0875
     15 N           2.5529    0.1949   31.4959 N.ar    1  UNL1       -0.2453
     16 C           1.9626    1.4402   32.0885 C.ar    1  UNL1        0.0858
     17 C           2.6950    1.7394   33.3629 C.ar    1  UNL1        0.0530
     18 S           3.7380    0.6791   33.5580 S.2     1  UNL1       -0.0705
     19 C           4.4922   -2.6006   33.2005 C.3     1  UNL1        0.0069
     20 C           4.5088   -1.4875   32.1953 C.3     1  UNL1        0.0465
     21 C           5.3840   -1.5864   30.9811 C.3     1  UNL1        0.0069
     22 C          -0.8407    2.0123   26.3723 C.3     1  UNL1        0.0463
     23 C          -1.1725    3.3650   25.8154 C.3     1  UNL1        0.0745
     24 N          -2.2316    4.2048   26.4660 N.3     1  UNL1       -0.2684
     25 C          -1.8511    5.4584   27.1964 C.3     1  UNL1        0.1046
     26 C          -2.9102    6.2981   27.8469 C.3     1  UNL1        0.1595
     27 O          -4.3497    5.8842   27.7670 O.3     1  UNL1       -0.3508
     28 C          -4.7302    4.6306   27.0366 C.3     1  UNL1        0.1595
     29 C          -3.6712    3.7908   26.3861 C.3     1  UNL1        0.1046
     30 C           3.4685   -1.1467   24.5432 C.3     1  UNL1        0.0216
     31 C           4.9659   -1.1739   24.4608 C.3     1  UNL1        0.0217
     32 C           5.6599   -2.3293   23.8023 C.3     1  UNL1        0.0792
     33 N           5.6429   -3.6823   24.4498 N.am    1  UNL1       -0.2720
     34 C           6.7748   -4.1019   25.3403 C.2     1  UNL1        0.4019
     35 O           7.9236   -3.1685   25.5832 O.2     1  UNL1       -0.2264
     36 H           4.8889   -4.2948   24.2904 H       1  UNL1        0.1527
     37 O           6.7578   -5.4548   25.9878 O.3     1  UNL1       -0.4291
     38 C           7.8912   -5.8757   26.8756 C.3     1  UNL1        0.2447
     39 C           7.7370   -5.8188   28.3665 C.ar    1  UNL1        0.0714
     40 C           6.5964   -5.1914   29.1117 C.ar    1  UNL1        0.1053
     41 N           6.8509   -5.3641   30.5798 N.ar    1  UNL1       -0.2350
     42 C           8.1488   -6.0983   30.7420 C.ar    1  UNL1        0.1343
     43 S           8.6965   -6.3793   29.3741 S.2     1  UNL1       -0.0652
     44 C           6.3709   -2.1317   22.4964 C.3     1  UNL1        0.0460
     45 C           5.7995   -2.7108   21.2362 C.ar    1  UNL1       -0.0205
     46 C           6.5035   -2.5018   19.9283 C.ar    1  UNL1       -0.0042
     47 C           5.9320   -3.0809   18.6681 C.ar    1  UNL1       -0.0003
     48 C           4.6566   -3.8689   18.7158 C.ar    1  UNL1       -0.0000
     49 C           3.9526   -4.0778   20.0237 C.ar    1  UNL1       -0.0003
     50 C           4.5240   -3.4988   21.2839 C.ar    1  UNL1       -0.0042
     51 C           3.1778    0.9947   23.1011 C.3     1  UNL1        0.0459
     52 C           3.1812    0.4700   21.6959 C.ar    1  UNL1       -0.0205
     53 C           4.3140    0.8069   20.7722 C.ar    1  UNL1       -0.0042
     54 C           4.3174    0.2822   19.3670 C.ar    1  UNL1       -0.0003
     55 C           3.1879   -0.5795   18.8855 C.ar    1  UNL1       -0.0000
     56 C           2.0551   -0.9165   19.8092 C.ar    1  UNL1       -0.0003
     57 C           2.0518   -0.3917   21.2144 C.ar    1  UNL1       -0.0042
@<TRIPOS>BOND
     1    19    20    1
     2    20    21    1
     3    20    14    1
     4    14    15   ar
     5    15    16   ar
     6    16    13    1
     7    13     7    1
     8     7     8    1
     9     7     9   am
    10     9    10    2
    11     9    11   am
    12    11     6    1
    13     6    22    1
    14    22    23    1
    15    23    24    1
    16    24    25    1
    17    25    26    1
    18    26    27    1
    19    27    28    1
    20    28    29    1
    21     6     2    1
    22     2     3    2
    23     2     4   am
    24     4     1    1
    25     1    30    1
    26    30    31    1
    27    32    31    1
    28    32    44    1
    29    44    45    1
    30    45    46   ar
    31    46    47   ar
    32    47    48   ar
    33    48    49   ar
    34    49    50   ar
    35    32    33    1
    36    33    34   am
    37    34    35    2
    38    34    37    1
    39    37    38    1
    40    38    39    1
    41    39    40   ar
    42    40    41   ar
    43    41    42   ar
    44    42    43   ar
    45     1    51    1
    46    51    52    1
    47    52    53   ar
    48    53    54   ar
    49    54    55   ar
    50    55    56   ar
    51    56    57   ar
    52    16    17   ar
    53    17    18   ar
    54    18    14   ar
    55    29    24    1
    56    50    45   ar
    57    43    39   ar
    58    57    52   ar
    59    11    12    1
    60     4     5    1
    61    33    36    1
@<TRIPOS>MOLECULE
*****
 57 61 0 0 0
SMALL
GASTEIGER

@<TRIPOS>ATOM
      1 C           2.5029   -0.2225   21.9971 C.3     1  UNL1        0.0760
      2 C           0.4396    1.3050   21.5972 C.2     1  UNL1        0.2404
      3 O          -0.2335    0.1979   20.8414 O.2     1  UNL1       -0.2733
      4 N           1.8078    1.0948   22.1751 N.am    1  UNL1       -0.3043
      5 H           2.2496    1.8214   22.6712 H       1  UNL1        0.1494
      6 C          -0.2554    2.6222   21.7752 C.3     1  UNL1        0.1511
      7 N          -3.6251    3.4973   19.8702 N.am    1  UNL1       -0.2567
      8 C          -4.0694    4.1245   18.5821 C.3     1  UNL1        0.1168
      9 C          -2.1624    3.3733   20.1787 C.2     1  UNL1        0.3046
     10 O          -1.1440    3.8765   19.1991 O.2     1  UNL1       -0.2526
     11 N          -1.7181    2.7462   21.4668 N.am    1  UNL1       -0.2824
     12 H          -2.3865    2.4160   22.1097 H       1  UNL1        0.1514
     13 C          -4.6435    2.9942   20.8498 C.3     1  UNL1        0.1413
     14 C          -5.9243    5.0076   23.9111 C.ar    1  UNL1        0.0875
     15 N          -5.1388    3.8716   23.3257 N.ar    1  UNL1       -0.2453
     16 C          -5.2692    3.9387   21.8328 C.ar    1  UNL1        0.0858
     17 C          -6.1353    5.1161   21.4957 C.ar    1  UNL1        0.0530
     18 S          -6.5401    5.7767   22.7801 S.2     1  UNL1       -0.0705
     19 C          -7.2062    6.1737   25.8467 C.3     1  UNL1        0.0069
     20 C          -6.0685    5.3196   25.3712 C.3     1  UNL1        0.0465
     21 C          -5.0751    4.7775   26.3557 C.3     1  UNL1        0.0069
     22 C           0.5123    3.8156   22.2617 C.3     1  UNL1        0.0463
     23 C           1.0880    3.8234   23.6468 C.3     1  UNL1        0.0745
     24 N           0.3142    3.2249   24.7840 N.3     1  UNL1       -0.2684
     25 C           0.8237    1.9931   25.4717 C.3     1  UNL1        0.1046
     26 C           0.0499    1.3947   26.6089 C.3     1  UNL1        0.1595
     27 O          -1.2334    2.0281   27.0583 O.3     1  UNL1       -0.3508
     28 C          -1.7429    3.2599   26.3706 C.3     1  UNL1        0.1595
     29 C          -0.9691    3.8583   25.2334 C.3     1  UNL1        0.1046
     30 C           3.1197   -0.9107   23.1786 C.3     1  UNL1        0.0216
     31 C           4.5604   -1.3261   23.1366 C.3     1  UNL1        0.0217
     32 C           4.9678   -2.6738   23.6542 C.3     1  UNL1        0.0792
     33 N           5.3495   -2.8397   25.0953 N.am    1  UNL1       -0.2720
     34 C           6.7960   -2.9294   25.4825 C.2     1  UNL1        0.4019
     35 O           7.8606   -2.8533   24.4286 O.2     1  UNL1       -0.2264
     36 H           4.6508   -2.8897   25.7870 H       1  UNL1        0.1527
     37 O           7.1777   -3.0953   26.9236 O.3     1  UNL1       -0.4291
     38 C           6.1302   -3.4326   27.9429 C.3     1  UNL1        0.2447
     39 C           6.5266   -4.0604   29.2462 C.ar    1  UNL1        0.0714
     40 C           6.7842   -5.5196   29.4798 C.ar    1  UNL1        0.1053
     41 N           7.1518   -5.7003   30.9228 N.ar    1  UNL1       -0.2350
     42 C           7.1215   -4.3528   31.5810 C.ar    1  UNL1        0.1343
     43 S           6.7351   -3.3393   30.5449 S.2     1  UNL1       -0.0652
     44 C           4.9935   -3.8555   22.7307 C.3     1  UNL1        0.0460
     45 C           5.1748   -3.6509   21.2558 C.ar    1  UNL1       -0.0205
     46 C           6.3873   -2.9330   20.7416 C.ar    1  UNL1       -0.0042
     47 C           6.5685   -2.7284   19.2668 C.ar    1  UNL1       -0.0003
     48 C           5.5373   -3.2418   18.3060 C.ar    1  UNL1       -0.0000
     49 C           4.3248   -3.9597   18.8202 C.ar    1  UNL1       -0.0003
     50 C           4.1435   -4.1643   20.2951 C.ar    1  UNL1       -0.0042
     51 C           2.5811   -0.8516   20.6376 C.3     1  UNL1        0.0459
     52 C           3.5460   -0.3199   19.6196 C.ar    1  UNL1       -0.0205
     53 C           4.7850    0.3991   20.0644 C.ar    1  UNL1       -0.0042
     54 C           5.7498    0.9308   19.0464 C.ar    1  UNL1       -0.0003
     55 C           5.4756    0.7435   17.5835 C.ar    1  UNL1       -0.0000
     56 C           4.2366    0.0245   17.1388 C.ar    1  UNL1       -0.0003
     57 C           3.2717   -0.5072   18.1569 C.ar    1  UNL1       -0.0042
@<TRIPOS>BOND
     1    19    20    1
     2    20    21    1
     3    20    14    1
     4    14    15   ar
     5    15    16   ar
     6    16    13    1
     7    13     7    1
     8     7     8    1
     9     7     9   am
    10     9    10    2
    11     9    11   am
    12    11     6    1
    13     6    22    1
    14    22    23    1
    15    23    24    1
    16    24    25    1
    17    25    26    1
    18    26    27    1
    19    27    28    1
    20    28    29    1
    21     6     2    1
    22     2     3    2
    23     2     4   am
    24     4     1    1
    25     1    30    1
    26    30    31    1
    27    32    31    1
    28    32    44    1
    29    44    45    1
    30    45    46   ar
    31    46    47   ar
    32    47    48   ar
    33    48    49   ar
    34    49    50   ar
    35    32    33    1
    36    33    34   am
    37    34    35    2
    38    34    37    1
    39    37    38    1
    40    38    39    1
    41    39    40   ar
    42    40    41   ar
    43    41    42   ar
    44    42    43   ar
    45     1    51    1
    46    51    52    1
    47    52    53   ar
    48    53    54   ar
    49    54    55   ar
    50    55    56   ar
    51    56    57   ar
    52    16    17   ar
    53    17    18   ar
    54    18    14   ar
    55    29    24    1
    56    50    45   ar
    57    43    39   ar
    58    57    52   ar
    59    11    12    1
    60     4     5    1
    61    33    36    1
@<TRIPOS>MOLECULE
*****
 57 61 0 0 0
SMALL
GASTEIGER

@<TRIPOS>ATOM
      1 C           2.9194   -0.6282   22.9935 C.3     1  UNL1        0.0760
      2 C           2.7795    1.6265   24.2769 C.2     1  UNL1        0.2404
      3 O           4.1824    1.9521   23.8578 O.2     1  UNL1       -0.2733
      4 N           2.1479    0.3364   23.8448 N.am    1  UNL1       -0.3043
      5 H           1.2271    0.1227   24.1199 H       1  UNL1        0.1494
      6 C           2.0080    2.5909   25.1282 C.3     1  UNL1        0.1511
      7 N           0.3836    1.1119   28.4332 N.am    1  UNL1       -0.2567
      8 C          -0.7666    0.2386   28.8386 C.3     1  UNL1        0.1168
      9 C           0.6207    1.4148   26.9834 C.2     1  UNL1        0.3046
     10 O          -0.2923    0.8443   25.9390 O.2     1  UNL1       -0.2526
     11 N           1.7709    2.2880   26.5780 N.am    1  UNL1       -0.2824
     12 H           2.3702    2.6624   27.2635 H       1  UNL1        0.1514
     13 C           1.2966    1.6823   29.4777 C.3     1  UNL1        0.1413
     14 C           3.6073   -0.4086   31.7916 C.ar    1  UNL1        0.0875
     15 N           2.4268    0.4944   31.5888 N.ar    1  UNL1       -0.2453
     16 C           2.3317    0.8113   30.1257 C.ar    1  UNL1        0.0858
     17 C           3.4534    0.1042   29.4244 C.ar    1  UNL1        0.0530
     18 S           4.2418   -0.6497   30.4540 S.2     1  UNL1       -0.0705
     19 C           4.2241   -2.4543   33.2696 C.3     1  UNL1        0.0069
     20 C           4.0718   -0.9715   33.1021 C.3     1  UNL1        0.0465
     21 C           4.3840   -0.0517   34.2451 C.3     1  UNL1        0.0069
     22 C           1.4737    3.8583   24.5296 C.3     1  UNL1        0.0463
     23 C          -0.0072    4.0704   24.4210 C.3     1  UNL1        0.0745
     24 N          -0.7393    3.6312   23.1876 N.3     1  UNL1       -0.2684
     25 C          -2.1913    3.9671   23.0178 C.3     1  UNL1        0.1046
     26 C          -2.9234    3.5280   21.7844 C.3     1  UNL1        0.1595
     27 O          -2.2034    2.7531   20.7208 O.3     1  UNL1       -0.3508
     28 C          -0.7514    2.4172   20.8906 C.3     1  UNL1        0.1595
     29 C          -0.0194    2.8563   22.1240 C.3     1  UNL1        0.1046
     30 C           4.1095   -1.3435   23.5609 C.3     1  UNL1        0.0216
     31 C           4.2934   -2.8105   23.3081 C.3     1  UNL1        0.0217
     32 C           5.6362   -3.4453   23.5185 C.3     1  UNL1        0.0792
     33 N           6.1235   -3.7257   24.9091 N.am    1  UNL1       -0.2720
     34 C           7.0284   -2.7476   25.5982 C.2     1  UNL1        0.4019
     35 O           7.4457   -1.4892   24.8967 O.2     1  UNL1       -0.2264
     36 H           5.8496   -4.5516   25.3696 H       1  UNL1        0.1527
     37 O           7.5158   -3.0280   26.9888 O.3     1  UNL1       -0.4291
     38 C           6.5646   -2.9534   28.1463 C.3     1  UNL1        0.2447
     39 C           6.7018   -3.9109   29.2927 C.ar    1  UNL1        0.0714
     40 C           6.7025   -5.4078   29.1961 C.ar    1  UNL1        0.1053
     41 N           6.8635   -5.9616   30.5808 N.ar    1  UNL1       -0.2350
     42 C           6.9623   -4.8070   31.5332 C.ar    1  UNL1        0.1343
     43 S           6.8624   -3.5396   30.7371 S.2     1  UNL1       -0.0652
     44 C           6.4914   -3.7996   22.3383 C.3     1  UNL1        0.0460
     45 C           6.0036   -3.5201   20.9476 C.ar    1  UNL1       -0.0205
     46 C           4.6860   -4.0719   20.4900 C.ar    1  UNL1       -0.0042
     47 C           4.1982   -3.7923   19.0993 C.ar    1  UNL1       -0.0003
     48 C           5.0281   -2.9611   18.1664 C.ar    1  UNL1       -0.0000
     49 C           6.3456   -2.4093   18.6240 C.ar    1  UNL1       -0.0003
     50 C           6.8334   -2.6889   20.0147 C.ar    1  UNL1       -0.0042
     51 C           2.5006   -0.8774   21.5749 C.3     1  UNL1        0.0459
     52 C           3.2661   -0.2528   20.4462 C.ar    1  UNL1       -0.0205
     53 C           4.5996    0.3832   20.7058 C.ar    1  UNL1       -0.0042
     54 C           5.3651    1.0077   19.5771 C.ar    1  UNL1       -0.0003
     55 C           4.7971    0.9964   18.1888 C.ar    1  UNL1       -0.0000
     56 C           3.4636    0.3604   17.9292 C.ar    1  UNL1       -0.0003
     57 C           2.6981   -0.2642   19.0580 C.ar    1  UNL1       -0.0042
@<TRIPOS>BOND
     1    19    20    1
     2    20    21    1
     3    20    14    1
     4    14    15   ar
     5    15    16   ar
     6    16    13    1
     7    13     7    1
     8     7     8    1
     9     7     9   am
    10     9    10    2
    11     9    11   am
    12    11     6    1
    13     6    22    1
    14    22    23    1
    15    23    24    1
    16    24    25    1
    17    25    26    1
    18    26    27    1
    19    27    28    1
    20    28    29    1
    21     6     2    1
    22     2     3    2
    23     2     4   am
    24     4     1    1
    25     1    30    1
    26    30    31    1
    27    32    31    1
    28    32    44    1
    29    44    45    1
    30    45    46   ar
    31    46    47   ar
    32    47    48   ar
    33    48    49   ar
    34    49    50   ar
    35    32    33    1
    36    33    34   am
    37    34    35    2
    38    34    37    1
    39    37    38    1
    40    38    39    1
    41    39    40   ar
    42    40    41   ar
    43    41    42   ar
    44    42    43   ar
    45     1    51    1
    46    51    52    1
    47    52    53   ar
    48    53    54   ar
    49    54    55   ar
    50    55    56   ar
    51    56    57   ar
    52    16    17   ar
    53    17    18   ar
    54    18    14   ar
    55    29    24    1
    56    50    45   ar
    57    43    39   ar
    58    57    52   ar
    59    11    12    1
    60     4     5    1
    61    33    36    1
