@<TRIPOS>MOLECULE
*****
 28 31 0 0 0
SMALL
GASTEIGER

@<TRIPOS>ATOM
      1 N           2.2849   -0.4345   19.9155 N.pl3   1  UNL1       -0.3017
      2 C           1.1032   -0.3734   20.8374 C.3     1  UNL1        0.1124
      3 C           0.1530    0.7848   20.7629 C.3     1  UNL1        0.1152
      4 N           0.3843    1.8819   19.7664 N.am    1  UNL1       -0.2714
      5 C          -0.5660    3.0400   19.6919 C.2     1  UNL1        0.2663
      6 O          -0.3346    4.1370   18.6954 O.2     1  UNL1       -0.2683
      7 C           1.5659    1.8207   18.8445 C.3     1  UNL1        0.1152
      8 C           2.5163    0.6625   18.9190 C.3     1  UNL1        0.1124
      9 C           4.1884   -1.7079   21.1425 C.ar    1  UNL1        0.1519
     10 C           5.1386   -2.8660   21.2170 C.ar    1  UNL1        0.0382
     11 C           5.1357   -3.9091   20.1391 C.ar    1  UNL1        0.0032
     12 C           4.1825   -3.7940   18.9866 C.ar    1  UNL1        0.0015
     13 C           3.2323   -2.6359   18.9121 C.ar    1  UNL1        0.0176
     14 C           3.2352   -1.5928   19.9901 C.ar    1  UNL1        0.0824
     15 C           3.6131   -0.9778   23.5686 C.3     1  UNL1        0.2525
     16 O           4.1913   -0.6648   22.2204 O.3     1  UNL1       -0.4702
     17 C          -1.7476    3.1011   20.6138 C.ar    1  UNL1        0.1288
     18 C          -1.7130    3.4648   22.0686 C.ar    1  UNL1        0.0439
     19 C          -3.1153    3.3978   22.5968 C.ar    1  UNL1        0.1023
     20 N          -4.0167    2.9927   21.4683 N.ar    1  UNL1       -0.1725
     21 N          -3.1714    2.8093   20.2428 N.ar    1  UNL1       -0.2714
     22 H          -3.4944    2.5440   19.3515 H       1  UNL1        0.1891
     23 C          -3.5415    3.6854   24.0059 C.ar    1  UNL1        0.0194
     24 C          -4.9457    4.1305   24.2887 C.ar    1  UNL1        0.0016
     25 C          -5.3719    4.4181   25.6978 C.ar    1  UNL1        0.0000
     26 C          -4.3937    4.2606   26.8241 C.ar    1  UNL1        0.0000
     27 C          -2.9895    3.8155   26.5413 C.ar    1  UNL1        0.0000
     28 C          -2.5633    3.5279   25.1322 C.ar    1  UNL1        0.0016
@<TRIPOS>BOND
     1    15    16    1
     2    16     9    1
     3     9    10   ar
     4    10    11   ar
     5    11    12   ar
     6    12    13   ar
     7    13    14   ar
     8    14     1    1
     9     1     2    1
    10     2     3    1
    11     3     4    1
    12     4     5   am
    13     5     6    2
    14     5    17    1
    15    17    18   ar
    16    18    19   ar
    17    19    23    1
    18    23    24   ar
    19    24    25   ar
    20    25    26   ar
    21    26    27   ar
    22    27    28   ar
    23    19    20   ar
    24    20    21   ar
    25     4     7    1
    26     7     8    1
    27    14     9   ar
    28     8     1    1
    29    21    17   ar
    30    28    23   ar
    31    21    22    1
@<TRIPOS>MOLECULE
*****
 28 31 0 0 0
SMALL
GASTEIGER

@<TRIPOS>ATOM
      1 N           2.7900   -0.4611   20.5671 N.pl3   1  UNL1       -0.3017
      2 C           1.2910   -0.4838   20.5171 C.3     1  UNL1        0.1124
      3 C           0.5111    0.7572   20.8359 C.3     1  UNL1        0.1152
      4 N           1.2302    2.0209   21.2047 N.am    1  UNL1       -0.2714
      5 C           0.4502    3.2619   21.5235 C.2     1  UNL1        0.2663
      6 O           1.1693    4.5255   21.8923 O.2     1  UNL1       -0.2683
      7 C           2.7292    2.0436   21.2547 C.3     1  UNL1        0.1152
      8 C           3.5091    0.8026   20.9359 C.3     1  UNL1        0.1124
      9 C           3.9728   -1.9918   18.8327 C.ar    1  UNL1        0.1519
     10 C           4.7526   -3.2328   18.5139 C.ar    1  UNL1        0.0382
     11 C           5.1297   -4.1841   19.6106 C.ar    1  UNL1        0.0032
     12 C           4.7269   -3.8944   21.0262 C.ar    1  UNL1        0.0015
     13 C           3.9471   -2.6534   21.3450 C.ar    1  UNL1        0.0176
     14 C           3.5700   -1.7021   20.2482 C.ar    1  UNL1        0.0824
     15 C           4.6587   -0.2581   17.0233 C.3     1  UNL1        0.2525
     16 O           3.5957   -1.0405   17.7359 O.3     1  UNL1       -0.4702
     17 C          -1.0487    3.2392   21.4736 C.ar    1  UNL1        0.1288
     18 C          -1.9743    3.7321   22.5461 C.ar    1  UNL1        0.0439
     19 C          -3.3830    3.5172   22.0777 C.ar    1  UNL1        0.1023
     20 N          -3.3281    2.8914   20.7156 N.ar    1  UNL1       -0.1725
     21 N          -1.8854    2.7196   20.3422 N.ar    1  UNL1       -0.2714
     22 H          -1.5472    2.3336   19.5021 H       1  UNL1        0.1891
     23 C          -4.6279    3.8666   22.8379 C.ar    1  UNL1        0.0194
     24 C          -5.9373    3.9902   22.1166 C.ar    1  UNL1        0.0016
     25 C          -7.1822    4.3396   22.8767 C.ar    1  UNL1        0.0000
     26 C          -7.1178    4.5656   24.3582 C.ar    1  UNL1        0.0000
     27 C          -5.8085    4.4420   25.0795 C.ar    1  UNL1        0.0000
     28 C          -4.5635    4.0925   24.3194 C.ar    1  UNL1        0.0016
@<TRIPOS>BOND
     1    15    16    1
     2    16     9    1
     3     9    10   ar
     4    10    11   ar
     5    11    12   ar
     6    12    13   ar
     7    13    14   ar
     8    14     1    1
     9     1     2    1
    10     2     3    1
    11     3     4    1
    12     4     5   am
    13     5     6    2
    14     5    17    1
    15    17    18   ar
    16    18    19   ar
    17    19    23    1
    18    23    24   ar
    19    24    25   ar
    20    25    26   ar
    21    26    27   ar
    22    27    28   ar
    23    19    20   ar
    24    20    21   ar
    25     4     7    1
    26     7     8    1
    27    14     9   ar
    28     8     1    1
    29    21    17   ar
    30    28    23   ar
    31    21    22    1
@<TRIPOS>MOLECULE
*****
 28 31 0 0 0
SMALL
GASTEIGER

@<TRIPOS>ATOM
      1 N          -2.0212    3.5072   22.6213 N.pl3   1  UNL1       -0.3017
      2 C          -0.7124    2.7761   22.5700 C.3     1  UNL1        0.1124
      3 C          -0.0332    2.5455   21.2527 C.3     1  UNL1        0.1152
      4 N          -0.6628    3.0461   19.9865 N.am    1  UNL1       -0.2714
      5 C           0.0164    2.8156   18.6691 C.2     1  UNL1        0.2663
      6 O          -0.6132    3.3162   17.4030 O.2     1  UNL1       -0.2683
      7 C          -1.9716    3.7773   20.0378 C.3     1  UNL1        0.1152
      8 C          -2.6507    4.0078   21.3552 C.3     1  UNL1        0.1124
      9 C          -4.1782    3.5168   24.0695 C.ar    1  UNL1        0.1519
     10 C          -4.8573    3.7473   25.3869 C.ar    1  UNL1        0.0382
     11 C          -4.0586    4.1988   26.5736 C.ar    1  UNL1        0.0032
     12 C          -2.5807    4.4197   26.4429 C.ar    1  UNL1        0.0015
     13 C          -1.9016    4.1892   25.1255 C.ar    1  UNL1        0.0176
     14 C          -2.7004    3.7377   23.9388 C.ar    1  UNL1        0.0824
     15 C          -6.1807    3.8471   22.4476 C.3     1  UNL1        0.2525
     16 O          -4.9769    3.0653   22.8828 O.3     1  UNL1       -0.4702
     17 C           1.3251    2.0845   18.6178 C.ar    1  UNL1        0.1288
     18 C           1.5126    0.6020   18.7484 C.ar    1  UNL1        0.0439
     19 C           2.9795    0.3087   18.6382 C.ar    1  UNL1        0.1023
     20 N           3.6987    1.6100   18.4396 N.ar    1  UNL1       -0.1725
     21 N           2.6762    2.7074   18.4270 N.ar    1  UNL1       -0.2714
     22 H           2.8597    3.6680   18.3134 H       1  UNL1        0.1891
     23 C           3.6156   -1.0477   18.7135 C.ar    1  UNL1        0.0194
     24 C           3.0136   -2.1110   19.5834 C.ar    1  UNL1        0.0016
     25 C           3.6496   -3.4674   19.6587 C.ar    1  UNL1        0.0000
     26 C           4.8876   -3.7604   18.8640 C.ar    1  UNL1        0.0000
     27 C           5.4895   -2.6970   17.9941 C.ar    1  UNL1        0.0000
     28 C           4.8536   -1.3407   17.9188 C.ar    1  UNL1        0.0016
@<TRIPOS>BOND
     1    15    16    1
     2    16     9    1
     3     9    10   ar
     4    10    11   ar
     5    11    12   ar
     6    12    13   ar
     7    13    14   ar
     8    14     1    1
     9     1     2    1
    10     2     3    1
    11     3     4    1
    12     4     5   am
    13     5     6    2
    14     5    17    1
    15    17    18   ar
    16    18    19   ar
    17    19    23    1
    18    23    24   ar
    19    24    25   ar
    20    25    26   ar
    21    26    27   ar
    22    27    28   ar
    23    19    20   ar
    24    20    21   ar
    25     4     7    1
    26     7     8    1
    27    14     9   ar
    28     8     1    1
    29    21    17   ar
    30    28    23   ar
    31    21    22    1
@<TRIPOS>MOLECULE
*****
 28 31 0 0 0
SMALL
GASTEIGER

@<TRIPOS>ATOM
      1 N          -9.6554  -16.9481   23.6407 N.pl3   1  UNL1       -0.3017
      2 C          -8.5337  -17.6978   22.9850 C.3     1  UNL1        0.1124
      3 C          -7.1106  -17.3202   23.2719 C.3     1  UNL1        0.1152
      4 N          -6.8093  -16.1928   24.2145 N.am    1  UNL1       -0.2714
      5 C          -5.3862  -15.8151   24.5013 C.2     1  UNL1        0.2663
      6 O          -5.0849  -14.6878   25.4438 O.2     1  UNL1       -0.2683
      7 C          -7.9309  -15.4431   24.8701 C.3     1  UNL1        0.1152
      8 C          -9.3540  -15.8208   24.5831 C.3     1  UNL1        0.1124
      9 C         -11.7134  -16.9257   22.0550 C.ar    1  UNL1        0.1519
     10 C         -13.1364  -17.3034   21.7681 C.ar    1  UNL1        0.0382
     11 C         -13.9245  -18.0813   22.7800 C.ar    1  UNL1        0.0032
     12 C         -13.2895  -18.4814   24.0787 C.ar    1  UNL1        0.0015
     13 C         -11.8665  -18.1037   24.3656 C.ar    1  UNL1        0.0176
     14 C         -11.0784  -17.3258   23.3537 C.ar    1  UNL1        0.0824
     15 C         -11.5161  -15.8557   19.6958 C.3     1  UNL1        0.2525
     16 O         -10.9253  -16.1478   21.0432 O.3     1  UNL1       -0.4702
     17 C          -4.2645  -16.5648   23.8457 C.ar    1  UNL1        0.1288
     18 C          -3.8136  -16.4104   22.4235 C.ar    1  UNL1        0.0439
     19 C          -2.6672  -17.3507   22.1960 C.ar    1  UNL1        0.1023
     20 N          -2.4096  -18.0862   23.4777 N.ar    1  UNL1       -0.1725
     21 N          -3.3968  -17.6005   24.4972 N.ar    1  UNL1       -0.2714
     22 H          -3.4636  -17.9075   25.4303 H       1  UNL1        0.1891
     23 C          -1.9111  -17.5248   20.9122 C.ar    1  UNL1        0.0194
     24 C          -2.6540  -17.6444   19.6147 C.ar    1  UNL1        0.0016
     25 C          -1.8981  -17.8185   18.3309 C.ar    1  UNL1        0.0000
     26 C          -0.3991  -17.8731   18.3447 C.ar    1  UNL1        0.0000
     27 C           0.3438  -17.7536   19.6423 C.ar    1  UNL1        0.0000
     28 C          -0.4122  -17.5794   20.9261 C.ar    1  UNL1        0.0016
@<TRIPOS>BOND
     1    15    16    1
     2    16     9    1
     3     9    10   ar
     4    10    11   ar
     5    11    12   ar
     6    12    13   ar
     7    13    14   ar
     8    14     1    1
     9     1     2    1
    10     2     3    1
    11     3     4    1
    12     4     5   am
    13     5     6    2
    14     5    17    1
    15    17    18   ar
    16    18    19   ar
    17    19    23    1
    18    23    24   ar
    19    24    25   ar
    20    25    26   ar
    21    26    27   ar
    22    27    28   ar
    23    19    20   ar
    24    20    21   ar
    25     4     7    1
    26     7     8    1
    27    14     9   ar
    28     8     1    1
    29    21    17   ar
    30    28    23   ar
    31    21    22    1
@<TRIPOS>MOLECULE
*****
 28 31 0 0 0
SMALL
GASTEIGER

@<TRIPOS>ATOM
      1 N           6.5579   -3.3821   31.2965 N.pl3   1  UNL1       -0.3017
      2 C           6.7332   -2.8342   29.9112 C.3     1  UNL1        0.1124
      3 C           7.1721   -3.7378   28.7973 C.3     1  UNL1        0.1152
      4 N           7.4357   -5.1894   29.0686 N.am    1  UNL1       -0.2714
      5 C           7.8746   -6.0930   27.9547 C.2     1  UNL1        0.2663
      6 O           8.1381   -7.5444   28.2261 O.2     1  UNL1       -0.2683
      7 C           7.2603   -5.7373   30.4539 C.3     1  UNL1        0.1152
      8 C           6.8214   -4.8336   31.5679 C.3     1  UNL1        0.1124
      9 C           7.0794   -1.4838   32.9920 C.ar    1  UNL1        0.1519
     10 C           6.6404   -0.5802   34.1058 C.ar    1  UNL1        0.0382
     11 C           5.2411   -0.6713   34.6383 C.ar    1  UNL1        0.0032
     12 C           4.2806   -1.6659   34.0568 C.ar    1  UNL1        0.0015
     13 C           4.7196   -2.5695   32.9429 C.ar    1  UNL1        0.0176
     14 C           6.1189   -2.4785   32.4105 C.ar    1  UNL1        0.0824
     15 C           9.4990   -2.4198   32.8524 C.3     1  UNL1        0.2525
     16 O           8.4787   -1.3928   32.4596 O.3     1  UNL1       -0.4702
     17 C           8.0499   -5.5450   26.5694 C.ar    1  UNL1        0.1288
     18 C           6.9505   -5.2455   25.5940 C.ar    1  UNL1        0.0439
     19 C           7.5766   -4.7158   24.3381 C.ar    1  UNL1        0.1023
     20 N           9.0631   -4.6880   24.5372 N.ar    1  UNL1       -0.1725
     21 N           9.3556   -5.2005   25.9163 N.ar    1  UNL1       -0.2714
     22 H          10.2479   -5.2943   26.3216 H       1  UNL1        0.1891
     23 C           6.8448   -4.2888   23.1003 C.ar    1  UNL1        0.0194
     24 C           5.4105   -3.8587   23.1879 C.ar    1  UNL1        0.0016
     25 C           4.6786   -3.4318   21.9502 C.ar    1  UNL1        0.0000
     26 C           5.3810   -3.4350   20.6248 C.ar    1  UNL1        0.0000
     27 C           6.8153   -3.8651   20.5372 C.ar    1  UNL1        0.0000
     28 C           7.5472   -4.2920   21.7749 C.ar    1  UNL1        0.0016
@<TRIPOS>BOND
     1    15    16    1
     2    16     9    1
     3     9    10   ar
     4    10    11   ar
     5    11    12   ar
     6    12    13   ar
     7    13    14   ar
     8    14     1    1
     9     1     2    1
    10     2     3    1
    11     3     4    1
    12     4     5   am
    13     5     6    2
    14     5    17    1
    15    17    18   ar
    16    18    19   ar
    17    19    23    1
    18    23    24   ar
    19    24    25   ar
    20    25    26   ar
    21    26    27   ar
    22    27    28   ar
    23    19    20   ar
    24    20    21   ar
    25     4     7    1
    26     7     8    1
    27    14     9   ar
    28     8     1    1
    29    21    17   ar
    30    28    23   ar
    31    21    22    1
@<TRIPOS>MOLECULE
*****
 28 31 0 0 0
SMALL
GASTEIGER

@<TRIPOS>ATOM
      1 N           7.7306   -4.2665   25.4273 N.pl3   1  UNL1       -0.3017
      2 C           6.3749   -3.9831   24.8512 C.3     1  UNL1        0.1124
      3 C           6.2210   -3.7427   23.3787 C.3     1  UNL1        0.1152
      4 N           7.4229   -3.7858   22.4821 N.am    1  UNL1       -0.2714
      5 C           7.2690   -3.5454   21.0095 C.2     1  UNL1        0.2663
      6 O           8.4708   -3.5885   20.1130 O.2     1  UNL1       -0.2683
      7 C           8.7785   -4.0692   23.0582 C.3     1  UNL1        0.1152
      8 C           8.9324   -4.3095   24.5308 C.3     1  UNL1        0.1124
      9 C           7.4885   -5.8280   27.4896 C.ar    1  UNL1        0.1519
     10 C           7.6423   -6.0683   28.9622 C.ar    1  UNL1        0.0382
     11 C           8.1920   -4.9875   29.8451 C.ar    1  UNL1        0.0032
     12 C           8.5879   -3.6663   29.2555 C.ar    1  UNL1        0.0015
     13 C           8.4341   -3.4260   27.7829 C.ar    1  UNL1        0.0176
     14 C           7.8844   -4.5069   26.9000 C.ar    1  UNL1        0.0824
     15 C           7.8494   -7.9709   26.0656 C.3     1  UNL1        0.2525
     16 O           6.9388   -6.9089   26.6067 O.3     1  UNL1       -0.4702
     17 C           5.9133   -3.2620   20.4335 C.ar    1  UNL1        0.1288
     18 C           5.2130   -1.9355   20.4383 C.ar    1  UNL1        0.0439
     19 C           3.8868   -2.1090   19.7592 C.ar    1  UNL1        0.1023
     20 N           3.7675   -3.5427   19.3347 N.ar    1  UNL1       -0.1725
     21 N           5.0199   -4.2553   19.7514 N.ar    1  UNL1       -0.2714
     22 H           5.2204   -5.2077   19.6033 H       1  UNL1        0.1891
     23 C           2.8602   -1.0370   19.5427 C.ar    1  UNL1        0.0194
     24 C           3.0362   -0.0433   18.4330 C.ar    1  UNL1        0.0016
     25 C           2.0097    1.0287   18.2164 C.ar    1  UNL1        0.0000
     26 C           0.8071    1.1070   19.1096 C.ar    1  UNL1        0.0000
     27 C           0.6312    0.1133   20.2193 C.ar    1  UNL1        0.0000
     28 C           1.6577   -0.9587   20.4359 C.ar    1  UNL1        0.0016
@<TRIPOS>BOND
     1    15    16    1
     2    16     9    1
     3     9    10   ar
     4    10    11   ar
     5    11    12   ar
     6    12    13   ar
     7    13    14   ar
     8    14     1    1
     9     1     2    1
    10     2     3    1
    11     3     4    1
    12     4     5   am
    13     5     6    2
    14     5    17    1
    15    17    18   ar
    16    18    19   ar
    17    19    23    1
    18    23    24   ar
    19    24    25   ar
    20    25    26   ar
    21    26    27   ar
    22    27    28   ar
    23    19    20   ar
    24    20    21   ar
    25     4     7    1
    26     7     8    1
    27    14     9   ar
    28     8     1    1
    29    21    17   ar
    30    28    23   ar
    31    21    22    1
@<TRIPOS>MOLECULE
*****
 28 31 0 0 0
SMALL
GASTEIGER

@<TRIPOS>ATOM
      1 N           3.0819   -0.0107   18.9600 N.pl3   1  UNL1       -0.3017
      2 C           1.6001    0.0216   18.7288 C.3     1  UNL1        0.1124
      3 C           0.9123    1.3257   18.4535 C.3     1  UNL1        0.1152
      4 N           1.7061    2.5978   18.4093 N.am    1  UNL1       -0.2714
      5 C           1.0182    3.9019   18.1339 C.2     1  UNL1        0.2663
      6 O           1.8120    5.1739   18.0897 O.2     1  UNL1       -0.2683
      7 C           3.1878    2.5655   18.6404 C.3     1  UNL1        0.1152
      8 C           3.8757    1.2612   18.9158 C.3     1  UNL1        0.1124
      9 C           3.7042   -1.9230   20.6050 C.ar    1  UNL1        0.1519
     10 C           4.3921   -3.2272   20.8803 C.ar    1  UNL1        0.0382
     11 C           5.1455   -3.9234   19.7859 C.ar    1  UNL1        0.0032
     12 C           5.2111   -3.3154   18.4163 C.ar    1  UNL1        0.0015
     13 C           4.5232   -2.0112   18.1410 C.ar    1  UNL1        0.0176
     14 C           3.7698   -1.3150   19.2353 C.ar    1  UNL1        0.0824
     15 C           3.5041   -1.2032   23.0933 C.3     1  UNL1        0.2525
     16 O           2.9507   -1.2268   21.6993 O.3     1  UNL1       -0.4702
     17 C          -0.4635    3.9342   17.9028 C.ar    1  UNL1        0.1288
     18 C          -1.5155    4.1372   18.9526 C.ar    1  UNL1        0.0439
     19 C          -2.8556    4.0976   18.2799 C.ar    1  UNL1        0.1023
     20 N          -2.6319    3.8701   16.8142 N.ar    1  UNL1       -0.1725
     21 N          -1.1535    3.7691   16.5812 N.ar    1  UNL1       -0.2714
     22 H          -0.7134    3.6205   15.7132 H       1  UNL1        0.1891
     23 C          -4.1858    4.2575   18.9544 C.ar    1  UNL1        0.0194
     24 C          -5.4119    3.6393   18.3507 C.ar    1  UNL1        0.0016
     25 C          -6.7421    3.7991   19.0251 C.ar    1  UNL1        0.0000
     26 C          -6.8462    4.5771   20.3033 C.ar    1  UNL1        0.0000
     27 C          -5.6201    5.1953   20.9071 C.ar    1  UNL1        0.0000
     28 C          -4.2899    5.0355   20.2326 C.ar    1  UNL1        0.0016
@<TRIPOS>BOND
     1    15    16    1
     2    16     9    1
     3     9    10   ar
     4    10    11   ar
     5    11    12   ar
     6    12    13   ar
     7    13    14   ar
     8    14     1    1
     9     1     2    1
    10     2     3    1
    11     3     4    1
    12     4     5   am
    13     5     6    2
    14     5    17    1
    15    17    18   ar
    16    18    19   ar
    17    19    23    1
    18    23    24   ar
    19    24    25   ar
    20    25    26   ar
    21    26    27   ar
    22    27    28   ar
    23    19    20   ar
    24    20    21   ar
    25     4     7    1
    26     7     8    1
    27    14     9   ar
    28     8     1    1
    29    21    17   ar
    30    28    23   ar
    31    21    22    1
@<TRIPOS>MOLECULE
*****
 28 31 0 0 0
SMALL
GASTEIGER

@<TRIPOS>ATOM
      1 N           2.8430    0.1754   18.8948 N.pl3   1  UNL1       -0.3017
      2 C           1.3466    0.1711   18.9977 C.3     1  UNL1        0.1124
      3 C           0.5856    1.4613   18.9190 C.3     1  UNL1        0.1152
      4 N           1.3212    2.7560   18.7375 N.am    1  UNL1       -0.2714
      5 C           0.5602    4.0462   18.6588 C.2     1  UNL1        0.2663
      6 O           1.2958    5.3408   18.4773 O.2     1  UNL1       -0.2683
      7 C           2.8176    2.7603   18.6346 C.3     1  UNL1        0.1152
      8 C           3.5786    1.4700   18.7133 C.3     1  UNL1        0.1124
      9 C           4.6368   -1.4410   17.9358 C.ar    1  UNL1        0.1519
     10 C           5.3977   -2.7312   18.0145 C.ar    1  UNL1        0.0382
     11 C           5.1257   -3.6954   19.1309 C.ar    1  UNL1        0.0032
     12 C           4.0928   -3.3694   20.1686 C.ar    1  UNL1        0.0015
     13 C           3.3320   -2.0791   20.0899 C.ar    1  UNL1        0.0176
     14 C           3.6040   -1.1149   18.9735 C.ar    1  UNL1        0.0824
     15 C           6.2143    0.2600   16.7661 C.3     1  UNL1        0.2525
     16 O           4.9088   -0.4768   16.8194 O.3     1  UNL1       -0.4702
     17 C          -0.9362    4.0419   18.7617 C.ar    1  UNL1        0.1288
     18 C          -1.7327    4.0520   20.0327 C.ar    1  UNL1        0.0439
     19 C          -3.1877    4.0430   19.6682 C.ar    1  UNL1        0.1023
     20 N          -3.2905    4.0274   18.1718 N.ar    1  UNL1       -0.1725
     21 N          -1.8990    4.0267   17.6116 N.ar    1  UNL1       -0.2714
     22 H          -1.6597    4.0178   16.6566 H       1  UNL1        0.1891
     23 C          -4.3379    4.0487   20.6309 C.ar    1  UNL1        0.0194
     24 C          -4.1981    3.3878   21.9702 C.ar    1  UNL1        0.0016
     25 C          -5.3483    3.3934   22.9330 C.ar    1  UNL1        0.0000
     26 C          -6.6382    4.0600   22.5565 C.ar    1  UNL1        0.0000
     27 C          -6.7780    4.7209   21.2173 C.ar    1  UNL1        0.0000
     28 C          -5.6278    4.7153   20.2545 C.ar    1  UNL1        0.0016
@<TRIPOS>BOND
     1    15    16    1
     2    16     9    1
     3     9    10   ar
     4    10    11   ar
     5    11    12   ar
     6    12    13   ar
     7    13    14   ar
     8    14     1    1
     9     1     2    1
    10     2     3    1
    11     3     4    1
    12     4     5   am
    13     5     6    2
    14     5    17    1
    15    17    18   ar
    16    18    19   ar
    17    19    23    1
    18    23    24   ar
    19    24    25   ar
    20    25    26   ar
    21    26    27   ar
    22    27    28   ar
    23    19    20   ar
    24    20    21   ar
    25     4     7    1
    26     7     8    1
    27    14     9   ar
    28     8     1    1
    29    21    17   ar
    30    28    23   ar
    31    21    22    1
@<TRIPOS>MOLECULE
*****
 28 31 0 0 0
SMALL
GASTEIGER

@<TRIPOS>ATOM
      1 N          -2.2740    3.6527   22.3694 N.pl3   1  UNL1       -0.3017
      2 C          -0.9592    2.9321   22.4146 C.3     1  UNL1        0.1124
      3 C          -0.2092    2.6597   21.1445 C.3     1  UNL1        0.1152
      4 N          -0.7740    3.1079   19.8291 N.am    1  UNL1       -0.2714
      5 C          -0.0239    2.8355   18.5590 C.2     1  UNL1        0.2663
      6 O          -0.5887    3.2837   17.2437 O.2     1  UNL1       -0.2683
      7 C          -2.0888    3.8285   19.7838 C.3     1  UNL1        0.1152
      8 C          -2.8388    4.1009   21.0540 C.3     1  UNL1        0.1124
      9 C          -2.4219    4.8089   24.6913 C.ar    1  UNL1        0.1519
     10 C          -3.1720    5.0813   25.9614 C.ar    1  UNL1        0.0382
     11 C          -4.5242    4.4698   26.1798 C.ar    1  UNL1        0.0032
     12 C          -5.1263    3.5859   25.1280 C.ar    1  UNL1        0.0015
     13 C          -4.3763    3.3136   23.8579 C.ar    1  UNL1        0.0176
     14 C          -3.0241    3.9251   23.6396 C.ar    1  UNL1        0.0824
     15 C          -0.1245    5.5819   25.6264 C.3     1  UNL1        0.2525
     16 O          -1.0698    5.4204   24.4730 O.3     1  UNL1       -0.4702
     17 C           1.2909    2.1150   18.6042 C.ar    1  UNL1        0.1288
     18 C           1.4800    0.6279   18.6571 C.ar    1  UNL1        0.0439
     19 C           2.9534    0.3488   18.6901 C.ar    1  UNL1        0.1023
     20 N           3.6750    1.6634   18.6575 N.ar    1  UNL1       -0.1725
     21 N           2.6475    2.7549   18.6045 N.ar    1  UNL1       -0.2714
     22 H           2.8313    3.7217   18.5750 H       1  UNL1        0.1891
     23 C           3.5929   -1.0069   18.7458 C.ar    1  UNL1        0.0194
     24 C           3.0539   -2.0528   19.6761 C.ar    1  UNL1        0.0016
     25 C           3.6933   -3.4084   19.7319 C.ar    1  UNL1        0.0000
     26 C           4.8719   -3.7182   18.8573 C.ar    1  UNL1        0.0000
     27 C           5.4110   -2.6724   17.9269 C.ar    1  UNL1        0.0000
     28 C           4.7715   -1.3167   17.8711 C.ar    1  UNL1        0.0016
@<TRIPOS>BOND
     1    15    16    1
     2    16     9    1
     3     9    10   ar
     4    10    11   ar
     5    11    12   ar
     6    12    13   ar
     7    13    14   ar
     8    14     1    1
     9     1     2    1
    10     2     3    1
    11     3     4    1
    12     4     5   am
    13     5     6    2
    14     5    17    1
    15    17    18   ar
    16    18    19   ar
    17    19    23    1
    18    23    24   ar
    19    24    25   ar
    20    25    26   ar
    21    26    27   ar
    22    27    28   ar
    23    19    20   ar
    24    20    21   ar
    25     4     7    1
    26     7     8    1
    27    14     9   ar
    28     8     1    1
    29    21    17   ar
    30    28    23   ar
    31    21    22    1
