@<TRIPOS>MOLECULE
*****
 20 22 0 0 0
SMALL
GASTEIGER

@<TRIPOS>ATOM
      1 C          -7.5103  -17.5118   22.7550 C.3     1  UNL1        0.0364
      2 C          -6.5400  -16.5253   23.3341 C.3     1  UNL1        0.0236
      3 C          -5.8198  -15.4356   24.0716 C.3     1  UNL1        0.0690
      4 N          -6.8136  -14.7357   24.9505 N.3     1  UNL1       -0.2972
      5 C          -8.1479  -15.3928   24.7563 C.3     1  UNL1        0.0727
      6 C          -7.9788  -16.4989   23.7572 C.3     1  UNL1        0.0372
      7 H          -6.8717  -13.7509   24.6913 H       1  UNL1        0.1233
      8 C          -9.4111  -16.9443   23.7725 C.ar    1  UNL1       -0.0205
      9 C          -9.8210  -18.1237   24.6037 C.ar    1  UNL1       -0.0033
     10 C         -11.2532  -18.5691   24.6190 C.ar    1  UNL1        0.0119
     11 C         -12.2756  -17.8350   23.8030 C.ar    1  UNL1        0.0682
     12 CL        -13.7079  -18.2804   23.8182 Cl      1  UNL1       -0.0814
     13 C         -11.8657  -16.6556   22.9718 C.ar    1  UNL1        0.0679
     14 CL        -12.8882  -15.9215   22.1558 Cl      1  UNL1       -0.0814
     15 C         -10.4334  -16.2102   22.9565 C.ar    1  UNL1        0.0080
     16 C          -7.8000  -18.6662   21.8421 C.3     1  UNL1        0.1424
     17 O          -8.5715  -18.4449   20.5749 O.3     1  UNL1       -0.3562
     18 C         -10.5647  -19.9545   21.2807 C.3     1  UNL1        0.0320
     19 C         -10.0334  -18.7764   20.5193 C.3     1  UNL1        0.1154
     20 C         -10.9639  -17.9298   19.7024 C.3     1  UNL1        0.0320
@<TRIPOS>BOND
     1    18    19    1
     2    19    20    1
     3    19    17    1
     4    17    16    1
     5     1    16    1
     6     1     2    1
     7     2     3    1
     8     3     4    1
     9     4     5    1
    10     5     6    1
    11     6     8    1
    12     8     9   ar
    13     9    10   ar
    14    10    11   ar
    15    11    12    1
    16    11    13   ar
    17    13    14    1
    18    13    15   ar
    19     6     1    1
    20    15     8   ar
    21     6     2    1
    22     4     7    1
@<TRIPOS>MOLECULE
*****
 20 22 0 0 0
SMALL
GASTEIGER

@<TRIPOS>ATOM
      1 C          -7.4927  -16.9575   23.0019 C.3     1  UNL1        0.0364
      2 C          -6.4003  -17.8934   22.5772 C.3     1  UNL1        0.0236
      3 C          -5.5395  -19.0400   22.1362 C.3     1  UNL1        0.0690
      4 N          -6.4197  -20.2431   21.9697 N.3     1  UNL1       -0.2972
      5 C          -7.8245  -19.8401   22.3078 C.3     1  UNL1        0.0727
      6 C          -7.8125  -18.3879   22.6833 C.3     1  UNL1        0.0372
      7 H          -6.1124  -20.9863   22.5971 H       1  UNL1        0.1233
      8 C          -9.2840  -18.2839   22.9547 C.ar    1  UNL1       -0.0205
      9 C          -9.8287  -18.6756   24.2963 C.ar    1  UNL1       -0.0033
     10 C         -11.3003  -18.5716   24.5678 C.ar    1  UNL1        0.0119
     11 C         -12.2271  -18.0760   23.4976 C.ar    1  UNL1        0.0682
     12 CL        -13.6987  -17.9720   23.7691 Cl      1  UNL1       -0.0814
     13 C         -11.6824  -17.6843   22.1560 C.ar    1  UNL1        0.0679
     14 CL        -12.6093  -17.1887   21.0858 Cl      1  UNL1       -0.0814
     15 C         -10.2108  -17.7883   21.8846 C.ar    1  UNL1        0.0080
     16 C          -7.9389  -15.5912   23.4311 C.3     1  UNL1        0.1424
     17 O          -8.4812  -15.3791   24.8135 O.3     1  UNL1       -0.3562
     18 C          -8.2603  -16.3880   27.1974 C.3     1  UNL1        0.0320
     19 C          -7.6398  -15.7155   26.0089 C.3     1  UNL1        0.1154
     20 C          -6.1780  -15.3793   26.0158 C.3     1  UNL1        0.0320
@<TRIPOS>BOND
     1    18    19    1
     2    19    20    1
     3    19    17    1
     4    17    16    1
     5     1    16    1
     6     1     2    1
     7     2     3    1
     8     3     4    1
     9     4     5    1
    10     5     6    1
    11     6     8    1
    12     8     9   ar
    13     9    10   ar
    14    10    11   ar
    15    11    12    1
    16    11    13   ar
    17    13    14    1
    18    13    15   ar
    19     6     1    1
    20    15     8   ar
    21     6     2    1
    22     4     7    1
@<TRIPOS>MOLECULE
*****
 20 22 0 0 0
SMALL
GASTEIGER

@<TRIPOS>ATOM
      1 C          -7.2123  -17.3215   22.7278 C.3     1  UNL1        0.0364
      2 C          -6.2972  -16.3782   23.4509 C.3     1  UNL1        0.0236
      3 C          -5.6441  -15.3461   24.3216 C.3     1  UNL1        0.0690
      4 N          -6.7059  -14.7240   25.1791 N.3     1  UNL1       -0.2972
      5 C          -8.0154  -15.3715   24.8383 C.3     1  UNL1        0.0727
      6 C          -7.7627  -16.3939   23.7702 C.3     1  UNL1        0.0372
      7 H          -6.7569  -13.7221   24.9945 H       1  UNL1        0.1233
      8 C          -9.1872  -16.8476   23.6474 C.ar    1  UNL1       -0.0205
      9 C          -9.7238  -17.8945   24.5780 C.ar    1  UNL1       -0.0033
     10 C         -11.1483  -18.3482   24.4551 C.ar    1  UNL1        0.0119
     11 C         -12.0361  -17.7550   23.4017 C.ar    1  UNL1        0.0682
     12 CL        -13.4605  -18.2087   23.2789 Cl      1  UNL1       -0.0814
     13 C         -11.4995  -16.7081   22.4711 C.ar    1  UNL1        0.0679
     14 CL        -12.3874  -16.1148   21.4176 Cl      1  UNL1       -0.0814
     15 C         -10.0750  -16.2544   22.5940 C.ar    1  UNL1        0.0080
     16 C          -7.4228  -18.4016   21.7085 C.3     1  UNL1        0.1424
     17 O          -6.6259  -18.3993   20.4377 O.3     1  UNL1       -0.3562
     18 C          -4.1983  -19.0389   19.7687 C.3     1  UNL1        0.0320
     19 C          -5.5733  -19.4437   20.2107 C.3     1  UNL1        0.1154
     20 C          -5.8958  -20.8927   20.4255 C.3     1  UNL1        0.0320
@<TRIPOS>BOND
     1    18    19    1
     2    19    20    1
     3    19    17    1
     4    17    16    1
     5     1    16    1
     6     1     2    1
     7     2     3    1
     8     3     4    1
     9     4     5    1
    10     5     6    1
    11     6     8    1
    12     8     9   ar
    13     9    10   ar
    14    10    11   ar
    15    11    12    1
    16    11    13   ar
    17    13    14    1
    18    13    15   ar
    19     6     1    1
    20    15     8   ar
    21     6     2    1
    22     4     7    1
@<TRIPOS>MOLECULE
*****
 20 22 0 0 0
SMALL
GASTEIGER

@<TRIPOS>ATOM
      1 C          -6.6343  -17.3639   23.0012 C.3     1  UNL1        0.0364
      2 C          -5.8372  -16.3655   23.7873 C.3     1  UNL1        0.0236
      3 C          -5.3194  -15.2345   24.6256 C.3     1  UNL1        0.0690
      4 N          -6.4889  -14.3916   25.0400 N.3     1  UNL1       -0.2972
      5 C          -7.7295  -15.0016   24.4578 C.3     1  UNL1        0.0727
      6 C          -7.3267  -16.2215   23.6835 C.3     1  UNL1        0.0372
      7 H          -6.3726  -13.4413   24.6882 H       1  UNL1        0.1233
      8 C          -8.7120  -16.5927   23.2439 C.ar    1  UNL1       -0.0205
      9 C          -9.2407  -16.0957   21.9312 C.ar    1  UNL1       -0.0033
     10 C         -10.6260  -16.4668   21.4916 C.ar    1  UNL1        0.0119
     11 C         -11.4825  -17.3350   22.3647 C.ar    1  UNL1        0.0682
     12 CL        -12.8678  -17.7062   21.9252 Cl      1  UNL1       -0.0814
     13 C         -10.9538  -17.8321   23.6775 C.ar    1  UNL1        0.0679
     14 CL        -11.8103  -18.7004   24.5508 Cl      1  UNL1       -0.0814
     15 C          -9.5685  -17.4609   24.1171 C.ar    1  UNL1        0.0080
     16 C          -6.6947  -18.5998   22.1534 C.3     1  UNL1        0.1424
     17 O          -6.9220  -18.4850   20.6752 O.3     1  UNL1       -0.3562
     18 C          -8.5349  -19.7123   19.0497 C.3     1  UNL1        0.0320
     19 C          -7.2824  -19.7016   19.8751 C.3     1  UNL1        0.1154
     20 C          -6.3906  -20.9073   19.9004 C.3     1  UNL1        0.0320
@<TRIPOS>BOND
     1    18    19    1
     2    19    20    1
     3    19    17    1
     4    17    16    1
     5     1    16    1
     6     1     2    1
     7     2     3    1
     8     3     4    1
     9     4     5    1
    10     5     6    1
    11     6     8    1
    12     8     9   ar
    13     9    10   ar
    14    10    11   ar
    15    11    12    1
    16    11    13   ar
    17    13    14    1
    18    13    15   ar
    19     6     1    1
    20    15     8   ar
    21     6     2    1
    22     4     7    1
@<TRIPOS>MOLECULE
*****
 20 22 0 0 0
SMALL
GASTEIGER

@<TRIPOS>ATOM
      1 C         -14.9604   -5.6801   19.2207 C.3     1  UNL1        0.0364
      2 C         -15.6459   -6.9943   19.4508 C.3     1  UNL1        0.0236
      3 C         -16.0781   -8.4279   19.5400 C.3     1  UNL1        0.0690
      4 N         -15.0094   -9.2740   18.9140 N.3     1  UNL1       -0.2972
      5 C         -13.9167   -8.3633   18.4379 C.3     1  UNL1        0.0727
      6 C         -14.3101   -6.9544   18.7697 C.3     1  UNL1        0.0372
      7 H         -15.3961   -9.7925   18.1253 H       1  UNL1        0.1233
      8 C         -13.0814   -6.3101   18.1993 C.ar    1  UNL1       -0.0205
      9 C         -13.0708   -5.8473   16.7726 C.ar    1  UNL1       -0.0033
     10 C         -11.8421   -5.2030   16.2022 C.ar    1  UNL1        0.0119
     11 C         -10.6242   -5.0215   17.0586 C.ar    1  UNL1        0.0682
     12 CL         -9.3955   -4.3772   16.4883 Cl      1  UNL1       -0.0814
     13 C         -10.6348   -5.4843   18.4854 C.ar    1  UNL1        0.0679
     14 CL         -9.4167   -5.3028   19.3419 Cl      1  UNL1       -0.0814
     15 C         -11.8635   -6.1286   19.0558 C.ar    1  UNL1        0.0080
     16 C         -14.9400   -4.1857   19.3483 C.3     1  UNL1        0.1424
     17 O         -13.6637   -3.4803   19.6998 O.3     1  UNL1       -0.3562
     18 C         -11.7016   -1.9179   19.0224 C.3     1  UNL1        0.0320
     19 C         -13.0348   -2.5350   18.7195 C.3     1  UNL1        0.1154
     20 C         -13.7390   -2.2068   17.4364 C.3     1  UNL1        0.0320
@<TRIPOS>BOND
     1    18    19    1
     2    19    20    1
     3    19    17    1
     4    17    16    1
     5     1    16    1
     6     1     2    1
     7     2     3    1
     8     3     4    1
     9     4     5    1
    10     5     6    1
    11     6     8    1
    12     8     9   ar
    13     9    10   ar
    14    10    11   ar
    15    11    12    1
    16    11    13   ar
    17    13    14    1
    18    13    15   ar
    19     6     1    1
    20    15     8   ar
    21     6     2    1
    22     4     7    1
@<TRIPOS>MOLECULE
*****
 20 22 0 0 0
SMALL
GASTEIGER

@<TRIPOS>ATOM
      1 C         -11.6864   -6.2406   17.2961 C.3     1  UNL1        0.0364
      2 C         -10.7039   -7.2190   17.8682 C.3     1  UNL1        0.0236
      3 C          -9.6228   -7.9508   18.6070 C.3     1  UNL1        0.0690
      4 N          -8.9459   -6.9753   19.5236 N.3     1  UNL1       -0.2972
      5 C          -9.6086   -5.6407   19.3514 C.3     1  UNL1        0.0727
      6 C         -10.6951   -5.7913   18.3283 C.3     1  UNL1        0.0372
      7 H          -7.9570   -6.9042   19.2841 H       1  UNL1        0.1233
      8 C         -11.1506   -4.3628   18.3719 C.ar    1  UNL1       -0.0205
      9 C         -12.2393   -3.9512   19.3182 C.ar    1  UNL1       -0.0033
     10 C         -12.6948   -2.5227   19.3618 C.ar    1  UNL1        0.0119
     11 C         -12.0616   -1.5059   18.4590 C.ar    1  UNL1        0.0682
     12 CL        -12.5171   -0.0773   18.5026 Cl      1  UNL1       -0.0814
     13 C         -10.9730   -1.9174   17.5127 C.ar    1  UNL1        0.0679
     14 CL        -10.3399   -0.9004   16.6099 Cl      1  UNL1       -0.0814
     15 C         -10.5175   -3.3459   17.4691 C.ar    1  UNL1        0.0080
     16 C         -12.8260   -5.9351   16.3698 C.3     1  UNL1        0.1424
     17 O         -14.2356   -6.2222   16.7948 O.3     1  UNL1       -0.3562
     18 C         -14.4416   -8.6503   17.6958 C.3     1  UNL1        0.0320
     19 C         -14.4992   -7.1695   17.9276 C.3     1  UNL1        0.1154
     20 C         -14.8203   -6.6359   19.2922 C.3     1  UNL1        0.0320
@<TRIPOS>BOND
     1    18    19    1
     2    19    20    1
     3    19    17    1
     4    17    16    1
     5     1    16    1
     6     1     2    1
     7     2     3    1
     8     3     4    1
     9     4     5    1
    10     5     6    1
    11     6     8    1
    12     8     9   ar
    13     9    10   ar
    14    10    11   ar
    15    11    12    1
    16    11    13   ar
    17    13    14    1
    18    13    15   ar
    19     6     1    1
    20    15     8   ar
    21     6     2    1
    22     4     7    1
@<TRIPOS>MOLECULE
*****
 20 22 0 0 0
SMALL
GASTEIGER

@<TRIPOS>ATOM
      1 C         -12.8192   -7.2883   18.5221 C.3     1  UNL1        0.0364
      2 C         -14.0574   -8.1309   18.4396 C.3     1  UNL1        0.0236
      3 C         -15.4441   -8.6974   18.3612 C.3     1  UNL1        0.0690
      4 N         -16.4133   -7.5526   18.3640 N.3     1  UNL1       -0.2972
      5 C         -15.6256   -6.2785   18.4441 C.3     1  UNL1        0.0727
      6 C         -14.1696   -6.6359   18.4908 C.3     1  UNL1        0.0372
      7 H         -17.0343   -7.6268   19.1698 H       1  UNL1        0.1233
      8 C         -13.6642   -5.2256   18.5643 C.ar    1  UNL1       -0.0205
      9 C         -13.4638   -4.5693   19.8981 C.ar    1  UNL1       -0.0033
     10 C         -12.9583   -3.1589   19.9717 C.ar    1  UNL1        0.0119
     11 C         -12.6534   -2.4049   18.7114 C.ar    1  UNL1        0.0682
     12 CL        -12.1480   -0.9945   18.7850 Cl      1  UNL1       -0.0814
     13 C         -12.8538   -3.0612   17.3776 C.ar    1  UNL1        0.0679
     14 CL        -12.5488   -2.3071   16.1172 Cl      1  UNL1       -0.0814
     15 C         -13.3592   -4.4715   17.3041 C.ar    1  UNL1        0.0080
     16 C         -11.3247   -7.1784   18.5878 C.3     1  UNL1        0.1424
     17 O         -10.5738   -6.4932   17.4848 O.3     1  UNL1       -0.3562
     18 C          -9.2664   -4.4209   16.6209 C.3     1  UNL1        0.0320
     19 C          -9.8472   -5.2094   17.7571 C.3     1  UNL1        0.1154
     20 C          -9.7015   -4.7141   19.1654 C.3     1  UNL1        0.0320
@<TRIPOS>BOND
     1    18    19    1
     2    19    20    1
     3    19    17    1
     4    17    16    1
     5     1    16    1
     6     1     2    1
     7     2     3    1
     8     3     4    1
     9     4     5    1
    10     5     6    1
    11     6     8    1
    12     8     9   ar
    13     9    10   ar
    14    10    11   ar
    15    11    12    1
    16    11    13   ar
    17    13    14    1
    18    13    15   ar
    19     6     1    1
    20    15     8   ar
    21     6     2    1
    22     4     7    1
@<TRIPOS>MOLECULE
*****
 20 22 0 0 0
SMALL
GASTEIGER

@<TRIPOS>ATOM
      1 C         -13.5559   -6.0689   19.2482 C.3     1  UNL1        0.0364
      2 C         -13.5372   -4.7870   20.0269 C.3     1  UNL1        0.0236
      3 C         -13.8301   -3.5193   20.7733 C.3     1  UNL1        0.0690
      4 N         -15.3167   -3.3194   20.7818 N.3     1  UNL1       -0.2972
      5 C         -15.9426   -4.4635   20.0406 C.3     1  UNL1        0.0727
      6 C         -14.8428   -5.3706   19.5740 C.3     1  UNL1        0.0372
      7 H         -15.5502   -2.4396   20.3215 H       1  UNL1        0.1233
      8 C         -15.7376   -6.3687   18.9009 C.ar    1  UNL1       -0.0205
      9 C         -16.1992   -6.1327   17.4934 C.ar    1  UNL1       -0.0033
     10 C         -17.0941   -7.1308   16.8203 C.ar    1  UNL1        0.0119
     11 C         -17.5273   -8.3648   17.5548 C.ar    1  UNL1        0.0682
     12 CL        -18.4222   -9.3629   16.8817 Cl      1  UNL1       -0.0814
     13 C         -17.0657   -8.6007   18.9623 C.ar    1  UNL1        0.0679
     14 CL        -17.4990   -9.8348   19.6969 Cl      1  UNL1       -0.0814
     15 C         -16.1709   -7.6026   19.6354 C.ar    1  UNL1        0.0080
     16 C         -12.8237   -7.2123   18.6106 C.3     1  UNL1        0.1424
     17 O         -11.5626   -6.9583   17.8390 O.3     1  UNL1       -0.3562
     18 C          -9.3332   -7.7851   18.8860 C.3     1  UNL1        0.0320
     19 C         -10.2834   -6.6691   18.5670 C.3     1  UNL1        0.1154
     20 C          -9.9543   -5.2640   18.9760 C.3     1  UNL1        0.0320
@<TRIPOS>BOND
     1    18    19    1
     2    19    20    1
     3    19    17    1
     4    17    16    1
     5     1    16    1
     6     1     2    1
     7     2     3    1
     8     3     4    1
     9     4     5    1
    10     5     6    1
    11     6     8    1
    12     8     9   ar
    13     9    10   ar
    14    10    11   ar
    15    11    12    1
    16    11    13   ar
    17    13    14    1
    18    13    15   ar
    19     6     1    1
    20    15     8   ar
    21     6     2    1
    22     4     7    1
@<TRIPOS>MOLECULE
*****
 20 22 0 0 0
SMALL
GASTEIGER

@<TRIPOS>ATOM
      1 C         -12.1023   -7.0233   18.1500 C.3     1  UNL1        0.0364
      2 C         -10.7121   -6.7356   18.6343 C.3     1  UNL1        0.0236
      3 C          -9.4288   -6.1548   19.1498 C.3     1  UNL1        0.0690
      4 N          -9.6497   -4.6925   19.4007 N.3     1  UNL1       -0.2972
      5 C         -11.0695   -4.3696   19.0402 C.3     1  UNL1        0.0727
      6 C         -11.7261   -5.6323   18.5666 C.3     1  UNL1        0.0372
      7 H          -9.0126   -4.1423   18.8246 H       1  UNL1        0.1233
      8 C         -13.0672   -5.0186   18.2932 C.ar    1  UNL1       -0.0205
      9 C         -13.3884   -4.4972   16.9239 C.ar    1  UNL1       -0.0033
     10 C         -14.7295   -3.8835   16.6505 C.ar    1  UNL1        0.0119
     11 C         -15.7495   -3.7913   17.7464 C.ar    1  UNL1        0.0682
     12 CL        -17.0906   -3.1776   17.4730 Cl      1  UNL1       -0.0814
     13 C         -15.4283   -4.3126   19.1157 C.ar    1  UNL1        0.0679
     14 CL        -16.4484   -4.2203   20.2117 Cl      1  UNL1       -0.0814
     15 C         -14.0872   -4.9263   19.3891 C.ar    1  UNL1        0.0080
     16 C         -13.1221   -7.9926   17.6300 C.3     1  UNL1        0.1424
     17 O         -14.1671   -8.5482   18.5515 O.3     1  UNL1       -0.3562
     18 C         -16.4869   -8.1556   19.6534 C.3     1  UNL1        0.0320
     19 C         -15.5831   -8.0617   18.4600 C.3     1  UNL1        0.1154
     20 C         -16.0952   -7.4813   17.1751 C.3     1  UNL1        0.0320
@<TRIPOS>BOND
     1    18    19    1
     2    19    20    1
     3    19    17    1
     4    17    16    1
     5     1    16    1
     6     1     2    1
     7     2     3    1
     8     3     4    1
     9     4     5    1
    10     5     6    1
    11     6     8    1
    12     8     9   ar
    13     9    10   ar
    14    10    11   ar
    15    11    12    1
    16    11    13   ar
    17    13    14    1
    18    13    15   ar
    19     6     1    1
    20    15     8   ar
    21     6     2    1
    22     4     7    1
