@<TRIPOS>MOLECULE
*****
 33 37 0 0 0
SMALL
GASTEIGER

@<TRIPOS>ATOM
      1 C          -7.6683  -19.7156   20.7975 C.3     1  UNL1        0.0920
      2 C          -8.1923  -20.1693   19.4671 C.3     1  UNL1        0.0429
      3 C          -9.4326  -19.3818   19.1645 C.3     1  UNL1        0.0985
      4 N          -9.6752  -18.4415   20.3077 N.am    1  UNL1       -0.2443
      5 C         -10.8091  -17.4661   20.4217 C.2     1  UNL1        0.4048
      6 O         -11.8298  -17.3713   19.3266 O.2     1  UNL1       -0.2262
      7 C          -8.5849  -18.6477   21.3170 C.3     1  UNL1        0.1162
      8 N          -6.4431  -20.2381   21.4872 N.pl3   1  UNL1       -0.3180
      9 H          -6.5193  -20.9766   22.1337 H       1  UNL1        0.1482
     10 C          -2.4188  -18.4298   20.6012 C.ar    1  UNL1        0.0877
     11 C          -2.7812  -18.7999   22.0089 C.ar    1  UNL1        0.0147
     12 C          -4.1226  -19.4027   22.3042 C.ar    1  UNL1        0.0348
     13 C          -5.1016  -19.6353   21.1918 C.ar    1  UNL1        0.1286
     14 N          -4.7393  -19.2651   19.7841 N.ar    1  UNL1       -0.2287
     15 C          -3.3979  -18.6624   19.4887 C.ar    1  UNL1        0.1105
     16 N           0.2641  -17.2242   20.0104 N.1     1  UNL1       -0.1908
     17 C          -1.0774  -17.8270   20.3058 C.1     1  UNL1        0.1020
     18 O         -10.9222  -16.5856   21.6307 O.3     1  UNL1       -0.4383
     19 C         -10.5637  -17.1215   22.9851 C.3     1  UNL1        0.1702
     20 C          -9.5966  -16.3747   23.8552 C.3     1  UNL1        0.0407
     21 C         -10.2052  -17.6574   24.3394 C.3     1  UNL1        0.0036
     22 C          -9.8466  -18.1932   25.6938 C.3     1  UNL1        0.0007
     23 C         -10.8137  -18.9400   24.8237 C.3     1  UNL1        0.0036
     24 C         -11.1722  -18.4041   23.4693 C.3     1  UNL1        0.0407
     25 C          -9.1806  -17.3355   25.8569 C.3     1  UNL1        0.0122
     26 C          -8.2710  -16.1639   26.0797 C.3     1  UNL1        0.0688
     27 C          -8.8795  -17.4465   26.5639 C.3     1  UNL1        0.0086
     28 C          -8.6295  -15.6280   24.7253 C.3     1  UNL1        0.0122
     29 C          -7.3039  -15.4171   26.9498 C.2     1  UNL1        0.2184
     30 N          -7.8098  -14.4176   27.9472 N.am    1  UNL1       -0.3288
     31 O          -5.8308  -15.6699   26.8224 O.2     1  UNL1       -0.2754
     32 H          -8.7766  -14.2516   28.0308 H       1  UNL1        0.1449
     33 H          -7.1750  -13.9275   28.5183 H       1  UNL1        0.1449
@<TRIPOS>BOND
     1    16    17    3
     2    17    10    1
     3    10    11   ar
     4    11    12   ar
     5    12    13   ar
     6    13     8    1
     7     1     8    1
     8     1     2    1
     9     2     3    1
    10     3     4    1
    11     4     5   am
    12     5     6    2
    13     5    18    1
    14    19    18    1
    15    19    20    1
    16    20    21    1
    17    21    22    1
    18    22    23    1
    19    23    24    1
    20    24    25    1
    21    25    26    1
    22    26    29    1
    23    29    30   am
    24    29    31    2
    25    26    27    1
    26    26    28    1
    27     4     7    1
    28    13    14   ar
    29    14    15   ar
    30    15    10   ar
    31     7     1    1
    32    24    19    1
    33    28    20    1
    34    27    22    1
    35     8     9    1
    36    30    32    1
    37    30    33    1
@<TRIPOS>MOLECULE
*****
 33 37 0 0 0
SMALL
GASTEIGER

@<TRIPOS>ATOM
      1 C          -9.4419  -18.5872   20.2793 C.3     1  UNL1        0.0920
      2 C          -9.3933  -19.3850   19.0099 C.3     1  UNL1        0.0429
      3 C          -8.1802  -20.2656   19.0620 C.3     1  UNL1        0.0985
      4 N          -7.4789  -20.0121   20.3635 N.am    1  UNL1       -0.2443
      5 C          -6.2190  -20.6788   20.8307 C.2     1  UNL1        0.4048
      6 O          -5.5471  -21.7031   19.9649 O.2     1  UNL1       -0.2262
      7 C          -8.2586  -18.9748   21.1159 C.3     1  UNL1        0.1162
      8 N         -10.4896  -17.5789   20.6475 N.pl3   1  UNL1       -0.3180
      9 H         -10.6004  -16.7641   20.1061 H       1  UNL1        0.1482
     10 C         -13.1265  -18.2784   24.2261 C.ar    1  UNL1        0.0877
     11 C         -13.7271  -17.8210   22.9300 C.ar    1  UNL1        0.0147
     12 C         -12.8481  -17.5879   21.7370 C.ar    1  UNL1        0.0348
     13 C         -11.3686  -17.8121   21.8404 C.ar    1  UNL1        0.1286
     14 N         -10.7680  -18.2694   23.1366 N.ar    1  UNL1       -0.2287
     15 C         -11.6469  -18.5025   24.3295 C.ar    1  UNL1        0.1105
     16 N         -14.8844  -18.7447   26.6120 N.1     1  UNL1       -0.1908
     17 C         -14.0055  -18.5115   25.4191 C.1     1  UNL1        0.1020
     18 O          -5.6311  -20.3213   22.1635 O.3     1  UNL1       -0.4383
     19 C          -4.7072  -19.1458   22.2848 C.3     1  UNL1        0.1702
     20 C          -3.4627  -19.0808   21.4500 C.3     1  UNL1        0.0407
     21 C          -3.7833  -17.9704   22.4060 C.3     1  UNL1        0.0036
     22 C          -2.8594  -16.7950   22.5272 C.3     1  UNL1        0.0007
     23 C          -4.1039  -16.8600   23.3620 C.3     1  UNL1        0.0036
     24 C          -5.0278  -18.0354   23.2408 C.3     1  UNL1        0.0407
     25 C          -2.1979  -17.2368   21.7703 C.3     1  UNL1        0.0122
     26 C          -1.2942  -17.8404   20.7364 C.3     1  UNL1        0.0688
     27 C          -1.6149  -16.7300   21.6924 C.3     1  UNL1        0.0086
     28 C          -2.2181  -19.0158   20.6151 C.3     1  UNL1        0.0122
     29 C          -0.0497  -17.7754   19.9015 C.2     1  UNL1        0.2184
     30 N          -0.1515  -17.7305   18.4057 N.am    1  UNL1       -0.3288
     31 O           1.2966  -17.7554   20.5625 O.2     1  UNL1       -0.2754
     32 H          -1.0351  -17.7436   17.9718 H       1  UNL1        0.1449
     33 H           0.6653  -17.6878   17.8578 H       1  UNL1        0.1449
@<TRIPOS>BOND
     1    16    17    3
     2    17    10    1
     3    10    11   ar
     4    11    12   ar
     5    12    13   ar
     6    13     8    1
     7     1     8    1
     8     1     2    1
     9     2     3    1
    10     3     4    1
    11     4     5   am
    12     5     6    2
    13     5    18    1
    14    19    18    1
    15    19    20    1
    16    20    21    1
    17    21    22    1
    18    22    23    1
    19    23    24    1
    20    24    25    1
    21    25    26    1
    22    26    29    1
    23    29    30   am
    24    29    31    2
    25    26    27    1
    26    26    28    1
    27     4     7    1
    28    13    14   ar
    29    14    15   ar
    30    15    10   ar
    31     7     1    1
    32    24    19    1
    33    28    20    1
    34    27    22    1
    35     8     9    1
    36    30    32    1
    37    30    33    1
@<TRIPOS>MOLECULE
*****
 33 37 0 0 0
SMALL
GASTEIGER

@<TRIPOS>ATOM
      1 C          -5.2394  -19.8005   20.6223 C.3     1  UNL1        0.0920
      2 C          -4.0103  -20.5957   20.9493 C.3     1  UNL1        0.0429
      3 C          -3.1127  -19.7371   21.7901 C.3     1  UNL1        0.0985
      4 N          -3.7870  -18.4111   21.9828 N.am    1  UNL1       -0.2443
      5 C          -3.2425  -17.2499   22.7607 C.2     1  UNL1        0.4048
      6 O          -1.9059  -17.3580   23.4328 O.2     1  UNL1       -0.2262
      7 C          -5.1014  -18.4502   21.2611 C.3     1  UNL1        0.1162
      8 N          -6.4023  -20.2725   19.8008 N.pl3   1  UNL1       -0.3180
      9 H          -6.2563  -20.8980   19.0547 H       1  UNL1        0.1482
     10 C         -10.5583  -18.8294   20.7468 C.ar    1  UNL1        0.0877
     11 C          -9.6727  -19.3377   21.8455 C.ar    1  UNL1        0.0147
     12 C          -8.2873  -19.8187   21.5302 C.ar    1  UNL1        0.0348
     13 C          -7.7877  -19.7914   20.1161 C.ar    1  UNL1        0.1286
     14 N          -8.6734  -19.2832   19.0174 N.ar    1  UNL1       -0.2287
     15 C         -10.0586  -18.8022   19.3326 C.ar    1  UNL1        0.1105
     16 N         -13.3291  -17.8674   21.3773 N.1     1  UNL1       -0.1908
     17 C         -11.9437  -18.3484   21.0621 C.1     1  UNL1        0.1020
     18 O          -4.0347  -15.9805   22.8665 O.3     1  UNL1       -0.4383
     19 C          -5.1234  -15.8590   23.8913 C.3     1  UNL1        0.1702
     20 C          -6.5470  -16.1374   23.5097 C.3     1  UNL1        0.0407
     21 C          -6.2120  -15.7376   24.9160 C.3     1  UNL1        0.0036
     22 C          -7.3006  -15.6161   25.9408 C.3     1  UNL1        0.0007
     23 C          -5.8769  -15.3377   26.3223 C.3     1  UNL1        0.0036
     24 C          -4.7883  -15.4592   25.2976 C.3     1  UNL1        0.0407
     25 C          -8.0440  -15.9027   25.1851 C.3     1  UNL1        0.0122
     26 C          -9.0594  -16.2943   24.1528 C.3     1  UNL1        0.0688
     27 C          -8.7243  -15.8945   25.5592 C.3     1  UNL1        0.0086
     28 C          -7.9707  -16.4158   23.1281 C.3     1  UNL1        0.0122
     29 C         -10.4830  -16.5727   23.7712 C.2     1  UNL1        0.2184
     30 N         -11.2157  -15.6269   22.8665 N.am    1  UNL1       -0.3288
     31 O         -11.1741  -17.7969   24.2944 O.2     1  UNL1       -0.2754
     32 H         -10.7622  -14.8233   22.5232 H       1  UNL1        0.1449
     33 H         -12.1501  -15.8096   22.6161 H       1  UNL1        0.1449
@<TRIPOS>BOND
     1    16    17    3
     2    17    10    1
     3    10    11   ar
     4    11    12   ar
     5    12    13   ar
     6    13     8    1
     7     1     8    1
     8     1     2    1
     9     2     3    1
    10     3     4    1
    11     4     5   am
    12     5     6    2
    13     5    18    1
    14    19    18    1
    15    19    20    1
    16    20    21    1
    17    21    22    1
    18    22    23    1
    19    23    24    1
    20    24    25    1
    21    25    26    1
    22    26    29    1
    23    29    30   am
    24    29    31    2
    25    26    27    1
    26    26    28    1
    27     4     7    1
    28    13    14   ar
    29    14    15   ar
    30    15    10   ar
    31     7     1    1
    32    24    19    1
    33    28    20    1
    34    27    22    1
    35     8     9    1
    36    30    32    1
    37    30    33    1
@<TRIPOS>MOLECULE
*****
 33 37 0 0 0
SMALL
GASTEIGER

@<TRIPOS>ATOM
      1 C         -10.4861  -18.1906   22.0895 C.3     1  UNL1        0.0920
      2 C         -11.4604  -19.2506   21.6684 C.3     1  UNL1        0.0429
      3 C         -10.8643  -19.9943   20.5102 C.3     1  UNL1        0.0985
      4 N          -9.5216  -19.3941   20.2155 N.am    1  UNL1       -0.2443
      5 C          -8.5781  -19.8318   19.1345 C.2     1  UNL1        0.4048
      6 O          -8.9502  -20.9686   18.2294 O.2     1  UNL1       -0.2262
      7 C          -9.2878  -18.2793   21.1915 C.3     1  UNL1        0.1162
      8 N         -10.6766  -17.2135   23.2116 N.pl3   1  UNL1       -0.3180
      9 H         -11.5846  -16.9800   23.5121 H       1  UNL1        0.1482
     10 C          -7.0982  -15.3496   25.2040 C.ar    1  UNL1        0.0877
     11 C          -8.0493  -16.1893   26.0041 C.ar    1  UNL1        0.0147
     12 C          -9.2421  -16.8107   25.3399 C.ar    1  UNL1        0.0348
     13 C          -9.4838  -16.5921   23.8757 C.ar    1  UNL1        0.1286
     14 N          -8.5326  -15.7524   23.0757 N.ar    1  UNL1       -0.2287
     15 C          -7.3399  -15.1311   23.7398 C.ar    1  UNL1        0.1105
     16 N          -4.7124  -14.1069   26.5323 N.1     1  UNL1       -0.1908
     17 C          -5.9053  -14.7282   25.8682 C.1     1  UNL1        0.1020
     18 O          -7.2627  -19.1327   18.9587 O.3     1  UNL1       -0.4383
     19 C          -6.1672  -19.3320   19.9639 C.3     1  UNL1        0.1702
     20 C          -4.7756  -18.8623   19.6595 C.3     1  UNL1        0.0407
     21 C          -5.0717  -19.5313   20.9689 C.3     1  UNL1        0.0036
     22 C          -3.9763  -19.7305   21.9740 C.3     1  UNL1        0.0007
     23 C          -5.3679  -20.2002   22.2784 C.3     1  UNL1        0.0036
     24 C          -6.4634  -20.0009   21.2733 C.3     1  UNL1        0.0407
     25 C          -3.2629  -19.2493   21.2919 C.3     1  UNL1        0.0122
     26 C          -2.2884  -18.5919   20.3601 C.3     1  UNL1        0.0688
     27 C          -2.5846  -19.2608   21.6696 C.3     1  UNL1        0.0086
     28 C          -3.3839  -18.3926   19.3551 C.3     1  UNL1        0.0122
     29 C          -0.8968  -18.1222   20.0557 C.2     1  UNL1        0.2184
     30 N          -0.5734  -16.6581   20.0975 N.am    1  UNL1       -0.3288
     31 O           0.1715  -19.1166   19.7095 O.2     1  UNL1       -0.2754
     32 H          -1.2745  -16.0054   20.3247 H       1  UNL1        0.1449
     33 H           0.3400  -16.3498   19.8977 H       1  UNL1        0.1449
@<TRIPOS>BOND
     1    16    17    3
     2    17    10    1
     3    10    11   ar
     4    11    12   ar
     5    12    13   ar
     6    13     8    1
     7     1     8    1
     8     1     2    1
     9     2     3    1
    10     3     4    1
    11     4     5   am
    12     5     6    2
    13     5    18    1
    14    19    18    1
    15    19    20    1
    16    20    21    1
    17    21    22    1
    18    22    23    1
    19    23    24    1
    20    24    25    1
    21    25    26    1
    22    26    29    1
    23    29    30   am
    24    29    31    2
    25    26    27    1
    26    26    28    1
    27     4     7    1
    28    13    14   ar
    29    14    15   ar
    30    15    10   ar
    31     7     1    1
    32    24    19    1
    33    28    20    1
    34    27    22    1
    35     8     9    1
    36    30    32    1
    37    30    33    1
@<TRIPOS>MOLECULE
*****
 33 37 0 0 0
SMALL
GASTEIGER

@<TRIPOS>ATOM
      1 C         -10.5742  -18.6971   21.9664 C.3     1  UNL1        0.0920
      2 C         -11.2079  -18.1946   20.7030 C.3     1  UNL1        0.0429
      3 C         -10.4116  -18.7184   19.5448 C.3     1  UNL1        0.0985
      4 N          -9.2857  -19.5446   20.0923 N.am    1  UNL1       -0.2443
      5 C          -8.2424  -20.2586   19.2849 C.2     1  UNL1        0.4048
      6 O          -8.2696  -20.1805   17.7872 O.2     1  UNL1       -0.2262
      7 C          -9.3861  -19.5314   21.5889 C.3     1  UNL1        0.1162
      8 N         -11.0457  -18.4147   23.3621 N.pl3   1  UNL1       -0.3180
      9 H         -11.9283  -18.7352   23.6577 H       1  UNL1        0.1482
     10 C          -8.4256  -16.1029   26.1976 C.ar    1  UNL1        0.0877
     11 C          -8.7723  -15.5258   24.8572 C.ar    1  UNL1        0.0147
     12 C          -9.6457  -16.2964   23.9120 C.ar    1  UNL1        0.0348
     13 C         -10.1723  -17.6441   24.3073 C.ar    1  UNL1        0.1286
     14 N          -9.8256  -18.2213   25.6477 N.ar    1  UNL1       -0.2287
     15 C          -8.9523  -17.4508   26.5929 C.ar    1  UNL1        0.1105
     16 N          -6.6789  -14.5617   28.0881 N.1     1  UNL1       -0.1908
     17 C          -7.5523  -15.3323   27.1429 C.1     1  UNL1        0.1020
     18 O          -7.1719  -21.0507   19.9753 O.3     1  UNL1       -0.4383
     19 C          -5.9432  -20.3615   20.4904 C.3     1  UNL1        0.1702
     20 C          -6.0708  -19.2404   21.4788 C.3     1  UNL1        0.0407
     21 C          -4.7145  -19.6723   21.0055 C.3     1  UNL1        0.0036
     22 C          -3.4859  -18.9831   21.5207 C.3     1  UNL1        0.0007
     23 C          -3.3583  -20.1042   20.5323 C.3     1  UNL1        0.0036
     24 C          -4.5869  -20.7934   20.0172 C.3     1  UNL1        0.0407
     25 C          -4.1130  -18.3267   22.1385 C.3     1  UNL1        0.0122
     26 C          -4.9697  -17.4302   22.9823 C.3     1  UNL1        0.0688
     27 C          -3.6135  -17.8621   22.5091 C.3     1  UNL1        0.0086
     28 C          -6.1984  -18.1194   22.4672 C.3     1  UNL1        0.0122
     29 C          -5.0973  -16.3091   23.9707 C.2     1  UNL1        0.2184
     30 N          -5.4652  -14.9330   23.5007 N.am    1  UNL1       -0.3288
     31 O          -4.8570  -16.5641   25.4292 O.2     1  UNL1       -0.2754
     32 H          -5.6230  -14.7656   22.5434 H       1  UNL1        0.1449
     33 H          -5.5490  -14.1972   24.1494 H       1  UNL1        0.1449
@<TRIPOS>BOND
     1    16    17    3
     2    17    10    1
     3    10    11   ar
     4    11    12   ar
     5    12    13   ar
     6    13     8    1
     7     1     8    1
     8     1     2    1
     9     2     3    1
    10     3     4    1
    11     4     5   am
    12     5     6    2
    13     5    18    1
    14    19    18    1
    15    19    20    1
    16    20    21    1
    17    21    22    1
    18    22    23    1
    19    23    24    1
    20    24    25    1
    21    25    26    1
    22    26    29    1
    23    29    30   am
    24    29    31    2
    25    26    27    1
    26    26    28    1
    27     4     7    1
    28    13    14   ar
    29    14    15   ar
    30    15    10   ar
    31     7     1    1
    32    24    19    1
    33    28    20    1
    34    27    22    1
    35     8     9    1
    36    30    32    1
    37    30    33    1
@<TRIPOS>MOLECULE
*****
 33 37 0 0 0
SMALL
GASTEIGER

@<TRIPOS>ATOM
      1 C          -6.4535  -19.5890   21.5679 C.3     1  UNL1        0.0920
      2 C          -5.2693  -20.5091   21.6033 C.3     1  UNL1        0.0429
      3 C          -4.1123  -19.7533   22.1864 C.3     1  UNL1        0.0985
      4 N          -4.5813  -18.3661   22.5114 N.am    1  UNL1       -0.2443
      5 C          -3.7494  -17.2724   23.1130 C.2     1  UNL1        0.4048
      6 O          -2.3080  -17.5224   23.4444 O.2     1  UNL1       -0.2262
      7 C          -6.0282  -18.2644   22.1292 C.3     1  UNL1        0.1162
      8 N          -7.8224  -19.9329   21.0605 N.pl3   1  UNL1       -0.3180
      9 H          -7.9286  -20.3520   20.1760 H       1  UNL1        0.1482
     10 C         -11.4442  -19.0492   23.5807 C.ar    1  UNL1        0.0877
     11 C         -11.5734  -19.1444   22.0894 C.ar    1  UNL1        0.0147
     12 C         -10.3661  -19.4390   21.2492 C.ar    1  UNL1        0.0348
     13 C          -9.0297  -19.6384   21.9006 C.ar    1  UNL1        0.1286
     14 N          -8.9005  -19.5432   23.3920 N.ar    1  UNL1       -0.2287
     15 C         -10.1077  -19.2486   24.2320 C.ar    1  UNL1        0.1105
     16 N         -13.8586  -18.4600   25.2610 N.1     1  UNL1       -0.1908
     17 C         -12.6514  -18.7546   24.4209 C.1     1  UNL1        0.1020
     18 O          -4.3590  -15.9287   23.3832 O.3     1  UNL1       -0.4383
     19 C          -5.7091  -15.8340   24.0299 C.3     1  UNL1        0.1702
     20 C          -6.9484  -15.8516   23.1850 C.3     1  UNL1        0.0407
     21 C          -7.0592  -15.7392   24.6766 C.3     1  UNL1        0.0036
     22 C          -8.4093  -15.6444   25.3233 C.3     1  UNL1        0.0007
     23 C          -7.1700  -15.6268   26.1682 C.3     1  UNL1        0.0036
     24 C          -5.8199  -15.7216   25.5216 C.3     1  UNL1        0.0407
     25 C          -8.8862  -15.6994   24.3357 C.3     1  UNL1        0.0122
     26 C          -9.5377  -15.7744   22.9867 C.3     1  UNL1        0.0688
     27 C          -9.6485  -15.6621   24.4783 C.3     1  UNL1        0.0086
     28 C          -8.1876  -15.8692   22.3400 C.3     1  UNL1        0.0122
     29 C         -10.7769  -15.7920   22.1417 C.2     1  UNL1        0.2184
     30 N         -10.6662  -15.9065   20.6502 N.am    1  UNL1       -0.3288
     31 O         -12.1269  -15.6951   22.7882 O.2     1  UNL1       -0.2754
     32 H          -9.7801  -15.9701   20.2259 H       1  UNL1        0.1449
     33 H         -11.4795  -15.9181   20.0957 H       1  UNL1        0.1449
@<TRIPOS>BOND
     1    16    17    3
     2    17    10    1
     3    10    11   ar
     4    11    12   ar
     5    12    13   ar
     6    13     8    1
     7     1     8    1
     8     1     2    1
     9     2     3    1
    10     3     4    1
    11     4     5   am
    12     5     6    2
    13     5    18    1
    14    19    18    1
    15    19    20    1
    16    20    21    1
    17    21    22    1
    18    22    23    1
    19    23    24    1
    20    24    25    1
    21    25    26    1
    22    26    29    1
    23    29    30   am
    24    29    31    2
    25    26    27    1
    26    26    28    1
    27     4     7    1
    28    13    14   ar
    29    14    15   ar
    30    15    10   ar
    31     7     1    1
    32    24    19    1
    33    28    20    1
    34    27    22    1
    35     8     9    1
    36    30    32    1
    37    30    33    1
@<TRIPOS>MOLECULE
*****
 33 37 0 0 0
SMALL
GASTEIGER

@<TRIPOS>ATOM
      1 C          -4.0657  -18.7385   21.4072 C.3     1  UNL1        0.0920
      2 C          -3.4994  -20.0884   21.0800 C.3     1  UNL1        0.0429
      3 C          -4.5320  -20.8477   20.3007 C.3     1  UNL1        0.0985
      4 N          -5.7363  -19.9670   20.1462 N.am    1  UNL1       -0.2443
      5 C          -7.0060  -20.3267   19.4330 C.2     1  UNL1        0.4048
      6 O          -7.1505  -21.6756   18.7931 O.2     1  UNL1       -0.2262
      7 C          -5.4482  -18.6634   20.8300 C.3     1  UNL1        0.1162
      8 N          -3.3713  -17.6540   22.1765 N.pl3   1  UNL1       -0.3180
      9 H          -2.4685  -17.3637   21.9122 H       1  UNL1        0.1482
     10 C          -5.4149  -15.7275   25.6924 C.ar    1  UNL1        0.0877
     11 C          -4.5271  -16.9184   25.9011 C.ar    1  UNL1        0.0147
     12 C          -3.8459  -17.5606   24.7291 C.ar    1  UNL1        0.0348
     13 C          -4.0525  -17.0118   23.3485 C.ar    1  UNL1        0.1286
     14 N          -4.9403  -15.8209   23.1398 N.ar    1  UNL1       -0.2287
     15 C          -5.6215  -15.1787   24.3117 C.ar    1  UNL1        0.1105
     16 N          -6.7774  -14.4431   28.0364 N.1     1  UNL1       -0.1908
     17 C          -6.0962  -15.0853   26.8644 C.1     1  UNL1        0.1020
     18 O          -8.1312  -19.3374   19.3598 O.3     1  UNL1       -0.4383
     19 C          -9.1087  -19.2282   20.4923 C.3     1  UNL1        0.1702
     20 C          -8.7841  -18.3766   21.6837 C.3     1  UNL1        0.0407
     21 C         -10.0862  -19.1189   21.6248 C.3     1  UNL1        0.0036
     22 C         -11.0636  -19.0096   22.7573 C.3     1  UNL1        0.0007
     23 C         -11.3883  -19.8612   21.5659 C.3     1  UNL1        0.0036
     24 C         -10.4108  -19.9705   20.4334 C.3     1  UNL1        0.0407
     25 C         -10.3761  -18.3360   23.2858 C.3     1  UNL1        0.0122
     26 C          -9.4368  -17.4158   24.0076 C.3     1  UNL1        0.0688
     27 C         -10.7389  -18.1581   23.9487 C.3     1  UNL1        0.0086
     28 C          -8.4594  -17.5251   22.8751 C.3     1  UNL1        0.0122
     29 C          -9.1122  -16.5642   25.1990 C.2     1  UNL1        0.2184
     30 N          -9.0921  -15.0700   25.0698 N.am    1  UNL1       -0.3288
     31 O          -8.8076  -17.2069   26.5197 O.2     1  UNL1       -0.2754
     32 H          -9.2919  -14.6481   24.2030 H       1  UNL1        0.1449
     33 H          -8.8790  -14.5111   25.8518 H       1  UNL1        0.1449
@<TRIPOS>BOND
     1    16    17    3
     2    17    10    1
     3    10    11   ar
     4    11    12   ar
     5    12    13   ar
     6    13     8    1
     7     1     8    1
     8     1     2    1
     9     2     3    1
    10     3     4    1
    11     4     5   am
    12     5     6    2
    13     5    18    1
    14    19    18    1
    15    19    20    1
    16    20    21    1
    17    21    22    1
    18    22    23    1
    19    23    24    1
    20    24    25    1
    21    25    26    1
    22    26    29    1
    23    29    30   am
    24    29    31    2
    25    26    27    1
    26    26    28    1
    27     4     7    1
    28    13    14   ar
    29    14    15   ar
    30    15    10   ar
    31     7     1    1
    32    24    19    1
    33    28    20    1
    34    27    22    1
    35     8     9    1
    36    30    32    1
    37    30    33    1
@<TRIPOS>MOLECULE
*****
 33 37 0 0 0
SMALL
GASTEIGER

@<TRIPOS>ATOM
      1 C           5.7977   -2.4398   18.6364 C.3     1  UNL1        0.0920
      2 C           7.0747   -1.6859   18.4102 C.3     1  UNL1        0.0429
      3 C           8.0933   -2.1962   19.3859 C.3     1  UNL1        0.0985
      4 N           7.4459   -3.2655   20.2151 N.am    1  UNL1       -0.2443
      5 C           8.1021   -4.0471   21.3145 C.2     1  UNL1        0.4048
      6 O           9.5360   -3.7850   21.6683 O.2     1  UNL1       -0.2262
      7 C           6.0272   -3.4161   19.7519 C.3     1  UNL1        0.1162
      8 N           4.5164   -2.2506   17.8799 N.pl3   1  UNL1       -0.3180
      9 H           4.3902   -2.6897   17.0078 H       1  UNL1        0.1482
     10 C           1.2491    0.3237   19.5966 C.ar    1  UNL1        0.0877
     11 C           1.7144   -0.8928   20.3406 C.ar    1  UNL1        0.0147
     12 C           2.8035   -1.7510   19.7683 C.ar    1  UNL1        0.0348
     13 C           3.4272   -1.3925   18.4521 C.ar    1  UNL1        0.1286
     14 N           2.9620   -0.1759   17.7081 N.ar    1  UNL1       -0.2287
     15 C           1.8729    0.6822   18.2803 C.ar    1  UNL1        0.1105
     16 N          -0.9292    2.0400   20.7411 N.1     1  UNL1       -0.1908
     17 C           0.1600    1.1819   20.1688 C.1     1  UNL1        0.1020
     18 O           7.3243   -5.0907   22.0600 O.3     1  UNL1       -0.4383
     19 C           7.2109   -5.0170   23.5540 C.3     1  UNL1        0.1702
     20 C           7.6075   -6.1939   24.3952 C.3     1  UNL1        0.0407
     21 C           7.0976   -4.9433   25.0479 C.3     1  UNL1        0.0036
     22 C           6.9842   -4.8696   26.5417 C.3     1  UNL1        0.0007
     23 C           6.5877   -3.6927   25.7005 C.3     1  UNL1        0.0036
     24 C           6.7010   -3.7664   24.2066 C.3     1  UNL1        0.0407
     25 C           7.3674   -5.8956   26.6215 C.3     1  UNL1        0.0122
     26 C           7.8907   -7.2971   26.7303 C.3     1  UNL1        0.0688
     27 C           7.3808   -6.0465   27.3829 C.3     1  UNL1        0.0086
     28 C           8.0040   -7.3708   25.2364 C.3     1  UNL1        0.0122
     29 C           8.2872   -8.4740   27.5715 C.2     1  UNL1        0.2184
     30 N           7.4919   -9.7441   27.5068 N.am    1  UNL1       -0.3288
     31 O           9.4791   -8.3808   28.4774 O.2     1  UNL1       -0.2754
     32 H           6.7097   -9.8053   26.9122 H       1  UNL1        0.1449
     33 H           7.7522  -10.5166   28.0589 H       1  UNL1        0.1449
@<TRIPOS>BOND
     1    16    17    3
     2    17    10    1
     3    10    11   ar
     4    11    12   ar
     5    12    13   ar
     6    13     8    1
     7     1     8    1
     8     1     2    1
     9     2     3    1
    10     3     4    1
    11     4     5   am
    12     5     6    2
    13     5    18    1
    14    19    18    1
    15    19    20    1
    16    20    21    1
    17    21    22    1
    18    22    23    1
    19    23    24    1
    20    24    25    1
    21    25    26    1
    22    26    29    1
    23    29    30   am
    24    29    31    2
    25    26    27    1
    26    26    28    1
    27     4     7    1
    28    13    14   ar
    29    14    15   ar
    30    15    10   ar
    31     7     1    1
    32    24    19    1
    33    28    20    1
    34    27    22    1
    35     8     9    1
    36    30    32    1
    37    30    33    1
@<TRIPOS>MOLECULE
*****
 33 37 0 0 0
SMALL
GASTEIGER

@<TRIPOS>ATOM
      1 C           5.8856   -2.6223   18.8296 C.3     1  UNL1        0.0920
      2 C           7.1886   -1.9292   18.5615 C.3     1  UNL1        0.0429
      3 C           8.1764   -2.3835   19.5949 C.3     1  UNL1        0.0985
      4 N           7.4839   -3.3572   20.5017 N.am    1  UNL1       -0.2443
      5 C           8.0992   -4.0600   21.6754 C.2     1  UNL1        0.4048
      6 O           9.5352   -3.8112   22.0301 O.2     1  UNL1       -0.2262
      7 C           6.0681   -3.5049   20.0287 C.3     1  UNL1        0.1162
      8 N           4.6219   -2.4611   18.0376 N.pl3   1  UNL1       -0.3180
      9 H           4.5093   -2.9436   17.1869 H       1  UNL1        0.1482
     10 C           1.3461    0.2278   19.5502 C.ar    1  UNL1        0.0877
     11 C           2.0568    0.5580   18.2712 C.ar    1  UNL1        0.0147
     12 C           3.1487   -0.3383   17.7670 C.ar    1  UNL1        0.0348
     13 C           3.5299   -1.5648   18.5418 C.ar    1  UNL1        0.1286
     14 N           2.8192   -1.8950   19.8208 N.ar    1  UNL1       -0.2287
     15 C           1.7273   -0.9988   20.3250 C.ar    1  UNL1        0.1105
     16 N          -0.8379    2.0204   20.5586 N.1     1  UNL1       -0.1908
     17 C           0.2541    1.1241   20.0544 C.1     1  UNL1        0.1020
     18 O           7.2784   -5.0116   22.4944 O.3     1  UNL1       -0.4383
     19 C           7.9470   -5.9179   23.4852 C.3     1  UNL1        0.1702
     20 C           7.6972   -5.7386   24.9533 C.3     1  UNL1        0.0407
     21 C           8.6156   -6.8242   24.4759 C.3     1  UNL1        0.0036
     22 C           9.2842   -7.7304   25.4667 C.3     1  UNL1        0.0007
     23 C           9.5340   -7.9098   23.9985 C.3     1  UNL1        0.0036
     24 C           8.8654   -7.0036   23.0078 C.3     1  UNL1        0.0407
     25 C           8.7904   -7.1958   26.2890 C.3     1  UNL1        0.0122
     26 C           8.1160   -6.4654   27.4122 C.3     1  UNL1        0.0688
     27 C           9.0344   -7.5511   26.9348 C.3     1  UNL1        0.0086
     28 C           7.4474   -5.5592   26.4214 C.3     1  UNL1        0.0122
     29 C           7.8662   -6.2861   28.8803 C.2     1  UNL1        0.2184
     30 N           6.5293   -5.8042   29.3603 N.am    1  UNL1       -0.3288
     31 O           8.9533   -6.5886   29.8685 O.2     1  UNL1       -0.2754
     32 H           5.8157   -5.6056   28.7117 H       1  UNL1        0.1449
     33 H           6.3653   -5.6865   30.3239 H       1  UNL1        0.1449
@<TRIPOS>BOND
     1    16    17    3
     2    17    10    1
     3    10    11   ar
     4    11    12   ar
     5    12    13   ar
     6    13     8    1
     7     1     8    1
     8     1     2    1
     9     2     3    1
    10     3     4    1
    11     4     5   am
    12     5     6    2
    13     5    18    1
    14    19    18    1
    15    19    20    1
    16    20    21    1
    17    21    22    1
    18    22    23    1
    19    23    24    1
    20    24    25    1
    21    25    26    1
    22    26    29    1
    23    29    30   am
    24    29    31    2
    25    26    27    1
    26    26    28    1
    27     4     7    1
    28    13    14   ar
    29    14    15   ar
    30    15    10   ar
    31     7     1    1
    32    24    19    1
    33    28    20    1
    34    27    22    1
    35     8     9    1
    36    30    32    1
    37    30    33    1
