@<TRIPOS>MOLECULE
*****
 31 34 0 0 0
SMALL
GASTEIGER

@<TRIPOS>ATOM
      1 C          -8.7641  -18.9144   22.2702 C.3     1  UNL1        0.0679
      2 C          -8.5617  -20.2977   22.8140 C.3     1  UNL1        0.0177
      3 C          -7.4571  -19.6195   22.0592 C.3     1  UNL1        0.0845
      4 C         -10.1705  -18.6590   22.7249 C.ar    1  UNL1       -0.0166
      5 C         -10.5806  -19.0056   24.1255 C.ar    1  UNL1       -0.0040
      6 C         -11.9870  -18.7501   24.5802 C.ar    1  UNL1        0.0020
      7 C         -12.9833  -18.1480   23.6343 C.ar    1  UNL1        0.0296
      8 C         -12.5733  -17.8014   22.2337 C.ar    1  UNL1        0.1398
      9 F         -13.5696  -17.1994   21.2878 F       1  UNL1       -0.2042
     10 C         -11.1669  -18.0569   21.7790 C.ar    1  UNL1        0.0255
     11 C          -6.0646  -19.6351   21.5016 C.2     1  UNL1        0.2271
     12 O          -5.5707  -20.8360   20.7507 O.2     1  UNL1       -0.2747
     13 N          -5.1661  -18.4496   21.6949 N.am    1  UNL1       -0.2693
     14 H          -5.4903  -17.6613   22.1877 H       1  UNL1        0.1563
     15 C          -3.7737  -18.4650   21.1373 C.ar    1  UNL1        0.1343
     16 C          -2.6060  -18.7238   22.0427 C.ar    1  UNL1        0.0368
     17 C          -1.2137  -18.7392   21.4850 C.ar    1  UNL1        0.0341
     18 C          -0.9888  -18.4959   20.0221 C.ar    1  UNL1        0.1593
     19 F           0.4036  -18.5114   19.4645 F       1  UNL1       -0.2025
     20 C          -2.1565  -18.2372   19.1168 C.ar    1  UNL1        0.1298
     21 N          -3.5489  -18.2217   19.6743 N.ar    1  UNL1       -0.2267
     22 C          -8.4780  -17.6200   21.5684 C.3     1  UNL1        0.2098
     23 O          -7.4924  -16.6520   22.1528 O.3     1  UNL1       -0.4723
     24 C          -8.0759  -14.8450   27.8444 C.3     1  UNL1        0.0736
     25 C          -7.9300  -15.2967   26.4215 C.ar    1  UNL1        0.1394
     26 N          -9.1499  -15.5487   25.5858 N.ar    1  UNL1       -0.2260
     27 C          -9.0040  -16.0004   24.1629 C.ar    1  UNL1        0.1382
     28 C          -7.6383  -16.2002   23.5757 C.ar    1  UNL1        0.1711
     29 C          -6.4185  -15.9483   24.4114 C.ar    1  UNL1        0.0960
     30 C          -5.0526  -16.1481   23.8242 C.3     1  UNL1        0.0555
     31 N          -6.5643  -15.4965   25.8343 N.ar    1  UNL1       -0.2319
@<TRIPOS>BOND
     1    24    25    1
     2    25    26   ar
     3    26    27   ar
     4    27    28   ar
     5    28    23    1
     6    23    22    1
     7     1    22    1
     8     1     4    1
     9     4     5   ar
    10     5     6   ar
    11     6     7   ar
    12     7     8   ar
    13     8     9    1
    14     8    10   ar
    15     1     2    1
    16     2     3    1
    17     3    11    1
    18    11    12    2
    19    11    13   am
    20    13    15    1
    21    15    16   ar
    22    16    17   ar
    23    17    18   ar
    24    18    19    1
    25    18    20   ar
    26    20    21   ar
    27    28    29   ar
    28    29    30    1
    29    29    31   ar
    30    31    25   ar
    31     3     1    1
    32    21    15   ar
    33    10     4   ar
    34    13    14    1
@<TRIPOS>MOLECULE
*****
 31 34 0 0 0
SMALL
GASTEIGER

@<TRIPOS>ATOM
      1 C          -5.1641  -18.7847   21.2612 C.3     1  UNL1        0.0679
      2 C          -5.7673  -19.3488   20.0091 C.3     1  UNL1        0.0177
      3 C          -6.6348  -19.0736   21.2013 C.3     1  UNL1        0.0845
      4 C          -3.7299  -18.6789   20.8347 C.ar    1  UNL1       -0.0166
      5 C          -2.6328  -18.9907   21.8089 C.ar    1  UNL1       -0.0040
      6 C          -1.1986  -18.8850   21.3824 C.ar    1  UNL1        0.0020
      7 C          -0.8615  -18.4675   19.9817 C.ar    1  UNL1        0.0296
      8 C          -1.9586  -18.1557   19.0074 C.ar    1  UNL1        0.1398
      9 F          -1.6216  -17.7383   17.6067 F       1  UNL1       -0.2042
     10 C          -3.3928  -18.2615   19.4339 C.ar    1  UNL1        0.0255
     11 C          -7.9848  -19.0815   21.8553 C.2     1  UNL1        0.2271
     12 O          -8.2894  -20.0771   22.9350 O.2     1  UNL1       -0.2747
     13 N          -9.0302  -18.0936   21.4294 N.am    1  UNL1       -0.2693
     14 H          -8.8302  -17.4401   20.7208 H       1  UNL1        0.1563
     15 C         -10.3801  -18.1014   22.0833 C.ar    1  UNL1        0.1343
     16 C         -11.6036  -17.7687   21.2818 C.ar    1  UNL1        0.0368
     17 C         -12.9535  -17.7766   21.9357 C.ar    1  UNL1        0.0341
     18 C         -13.0800  -18.1171   23.3911 C.ar    1  UNL1        0.1593
     19 F         -14.4299  -18.1249   24.0449 F       1  UNL1       -0.2025
     20 C         -11.8565  -18.4497   24.1925 C.ar    1  UNL1        0.1298
     21 N         -10.5066  -18.4419   23.5386 N.ar    1  UNL1       -0.2267
     22 C          -5.0590  -18.2572   22.6614 C.3     1  UNL1        0.2098
     23 O          -5.1857  -16.7851   22.9199 O.3     1  UNL1       -0.4723
     24 C          -8.2474  -14.8301   27.6952 C.3     1  UNL1        0.0736
     25 C          -7.4820  -15.3188   26.5013 C.ar    1  UNL1        0.1394
     26 N          -6.1440  -15.9717   26.6842 N.ar    1  UNL1       -0.2260
     27 C          -5.3785  -16.4604   25.4903 C.ar    1  UNL1        0.1382
     28 C          -5.9511  -16.2964   24.1137 C.ar    1  UNL1        0.1711
     29 C          -7.2891  -15.6435   23.9309 C.ar    1  UNL1        0.0960
     30 C          -7.8618  -15.4794   22.5542 C.3     1  UNL1        0.0555
     31 N          -8.0546  -15.1548   25.1247 N.ar    1  UNL1       -0.2319
@<TRIPOS>BOND
     1    24    25    1
     2    25    26   ar
     3    26    27   ar
     4    27    28   ar
     5    28    23    1
     6    23    22    1
     7     1    22    1
     8     1     4    1
     9     4     5   ar
    10     5     6   ar
    11     6     7   ar
    12     7     8   ar
    13     8     9    1
    14     8    10   ar
    15     1     2    1
    16     2     3    1
    17     3    11    1
    18    11    12    2
    19    11    13   am
    20    13    15    1
    21    15    16   ar
    22    16    17   ar
    23    17    18   ar
    24    18    19    1
    25    18    20   ar
    26    20    21   ar
    27    28    29   ar
    28    29    30    1
    29    29    31   ar
    30    31    25   ar
    31     3     1    1
    32    21    15   ar
    33    10     4   ar
    34    13    14    1
@<TRIPOS>MOLECULE
*****
 31 34 0 0 0
SMALL
GASTEIGER

@<TRIPOS>ATOM
      1 C          -6.3220  -18.9877   21.0528 C.3     1  UNL1        0.0679
      2 C          -6.7763  -19.6304   19.7759 C.3     1  UNL1        0.0177
      3 C          -7.7797  -19.2609   20.8278 C.3     1  UNL1        0.0845
      4 C          -4.8438  -18.9309   20.8044 C.ar    1  UNL1       -0.0166
      5 C          -4.3162  -18.9923   19.4016 C.ar    1  UNL1       -0.0040
      6 C          -2.8380  -18.9355   19.1532 C.ar    1  UNL1        0.0020
      7 C          -1.8875  -18.8173   20.3075 C.ar    1  UNL1        0.0296
      8 C          -2.4152  -18.7559   21.7103 C.ar    1  UNL1        0.1398
      9 F          -1.4646  -18.6377   22.8646 F       1  UNL1       -0.2042
     10 C          -3.8933  -18.8127   21.9587 C.ar    1  UNL1        0.0255
     11 C          -9.2006  -19.2052   21.3052 C.2     1  UNL1        0.2271
     12 O         -10.2639  -19.9829   20.5880 O.2     1  UNL1       -0.2747
     13 N          -9.5583  -18.3717   22.5001 N.am    1  UNL1       -0.2693
     14 H          -8.8604  -17.8613   22.9708 H       1  UNL1        0.1563
     15 C         -10.9791  -18.3160   22.9775 C.ar    1  UNL1        0.1343
     16 C         -11.3388  -18.8627   24.3273 C.ar    1  UNL1        0.0368
     17 C         -12.7597  -18.8070   24.8047 C.ar    1  UNL1        0.0341
     18 C         -13.8209  -18.2046   23.9324 C.ar    1  UNL1        0.1593
     19 F         -15.2418  -18.1489   24.4099 F       1  UNL1       -0.2025
     20 C         -13.4612  -17.6580   22.5827 C.ar    1  UNL1        0.1298
     21 N         -12.0404  -17.7137   22.1053 N.ar    1  UNL1       -0.2267
     22 C          -6.3812  -18.3646   22.4160 C.3     1  UNL1        0.2098
     23 O          -6.8550  -16.9503   22.5743 O.3     1  UNL1       -0.4723
     24 C          -7.0045  -14.4277   28.0162 C.3     1  UNL1        0.0736
     25 C          -6.9672  -15.0584   26.6558 C.ar    1  UNL1        0.1394
     26 N          -8.1925  -15.7250   26.1042 N.ar    1  UNL1       -0.2260
     27 C          -8.1551  -16.3556   24.7437 C.ar    1  UNL1        0.1382
     28 C          -6.8924  -16.3197   23.9348 C.ar    1  UNL1        0.1711
     29 C          -5.6671  -15.6531   24.4864 C.ar    1  UNL1        0.0960
     30 C          -4.4044  -15.6171   23.6775 C.3     1  UNL1        0.0555
     31 N          -5.7045  -15.0224   25.8469 N.ar    1  UNL1       -0.2319
@<TRIPOS>BOND
     1    24    25    1
     2    25    26   ar
     3    26    27   ar
     4    27    28   ar
     5    28    23    1
     6    23    22    1
     7     1    22    1
     8     1     4    1
     9     4     5   ar
    10     5     6   ar
    11     6     7   ar
    12     7     8   ar
    13     8     9    1
    14     8    10   ar
    15     1     2    1
    16     2     3    1
    17     3    11    1
    18    11    12    2
    19    11    13   am
    20    13    15    1
    21    15    16   ar
    22    16    17   ar
    23    17    18   ar
    24    18    19    1
    25    18    20   ar
    26    20    21   ar
    27    28    29   ar
    28    29    30    1
    29    29    31   ar
    30    31    25   ar
    31     3     1    1
    32    21    15   ar
    33    10     4   ar
    34    13    14    1
@<TRIPOS>MOLECULE
*****
 31 34 0 0 0
SMALL
GASTEIGER

@<TRIPOS>ATOM
      1 C          -8.8267  -18.8439   21.2419 C.3     1  UNL1        0.0679
      2 C          -9.0538  -19.4031   19.8687 C.3     1  UNL1        0.0177
      3 C          -7.6578  -19.2570   20.3975 C.3     1  UNL1        0.0845
      4 C         -10.2457  -18.5951   21.6597 C.ar    1  UNL1       -0.0166
      5 C         -11.2240  -18.0130   20.6829 C.ar    1  UNL1       -0.0040
      6 C         -12.6430  -17.7642   21.1008 C.ar    1  UNL1        0.0020
      7 C         -13.0836  -18.0973   22.4953 C.ar    1  UNL1        0.0296
      8 C         -12.1052  -18.6793   23.4721 C.ar    1  UNL1        0.1398
      9 F         -12.5458  -19.0124   24.8667 F       1  UNL1       -0.2042
     10 C         -10.6863  -18.9282   23.0543 C.ar    1  UNL1        0.0255
     11 C          -6.1768  -19.4111   20.2154 C.2     1  UNL1        0.2271
     12 O          -5.5932  -20.7625   19.9271 O.2     1  UNL1       -0.2747
     13 N          -5.2795  -18.2138   20.3215 N.am    1  UNL1       -0.2693
     14 H          -5.6626  -17.3268   20.5107 H       1  UNL1        0.1563
     15 C          -3.7986  -18.3678   20.1394 C.ar    1  UNL1        0.1343
     16 C          -3.0108  -19.2206   21.0892 C.ar    1  UNL1        0.0368
     17 C          -1.5299  -19.3746   20.9070 C.ar    1  UNL1        0.0341
     18 C          -0.8368  -18.6759   19.7751 C.ar    1  UNL1        0.1593
     19 F           0.6441  -18.8299   19.5929 F       1  UNL1       -0.2025
     20 C          -1.6246  -17.8231   18.8253 C.ar    1  UNL1        0.1298
     21 N          -3.1055  -17.6690   19.0075 N.ar    1  UNL1       -0.2267
     22 C          -8.1068  -18.3711   22.4700 C.3     1  UNL1        0.2098
     23 O          -7.6019  -16.9608   22.5471 O.3     1  UNL1       -0.4723
     24 C          -6.5198  -14.4497   27.8879 C.3     1  UNL1        0.0736
     25 C          -6.7903  -15.0775   26.5527 C.ar    1  UNL1        0.1394
     26 N          -5.6523  -15.5886   25.7198 N.ar    1  UNL1       -0.2260
     27 C          -5.9229  -16.2163   24.3846 C.ar    1  UNL1        0.1382
     28 C          -7.3314  -16.3330   23.8823 C.ar    1  UNL1        0.1711
     29 C          -8.4694  -15.8219   24.7152 C.ar    1  UNL1        0.0960
     30 C          -9.8780  -15.9386   24.2129 C.3     1  UNL1        0.0555
     31 N          -8.1989  -15.1941   26.0504 N.ar    1  UNL1       -0.2319
@<TRIPOS>BOND
     1    24    25    1
     2    25    26   ar
     3    26    27   ar
     4    27    28   ar
     5    28    23    1
     6    23    22    1
     7     1    22    1
     8     1     4    1
     9     4     5   ar
    10     5     6   ar
    11     6     7   ar
    12     7     8   ar
    13     8     9    1
    14     8    10   ar
    15     1     2    1
    16     2     3    1
    17     3    11    1
    18    11    12    2
    19    11    13   am
    20    13    15    1
    21    15    16   ar
    22    16    17   ar
    23    17    18   ar
    24    18    19    1
    25    18    20   ar
    26    20    21   ar
    27    28    29   ar
    28    29    30    1
    29    29    31   ar
    30    31    25   ar
    31     3     1    1
    32    21    15   ar
    33    10     4   ar
    34    13    14    1
@<TRIPOS>MOLECULE
*****
 31 34 0 0 0
SMALL
GASTEIGER

@<TRIPOS>ATOM
      1 C           6.2024   -3.6095   22.8659 C.3     1  UNL1        0.0679
      2 C           7.4329   -4.4574   22.7352 C.3     1  UNL1        0.0177
      3 C           7.0005   -3.9661   24.0848 C.3     1  UNL1        0.0845
      4 C           5.7809   -3.5388   21.4281 C.ar    1  UNL1       -0.0166
      5 C           6.6669   -2.8707   20.4187 C.ar    1  UNL1       -0.0040
      6 C           6.2453   -2.8000   18.9809 C.ar    1  UNL1        0.0020
      7 C           4.9378   -3.3974   18.5525 C.ar    1  UNL1        0.0296
      8 C           4.0518   -4.0654   19.5618 C.ar    1  UNL1        0.1398
      9 F           2.7443   -4.6627   19.1334 F       1  UNL1       -0.2042
     10 C           4.4734   -4.1361   20.9996 C.ar    1  UNL1        0.0255
     11 C           7.2116   -3.8884   25.5679 C.2     1  UNL1        0.2271
     12 O           8.4951   -3.3376   26.1150 O.2     1  UNL1       -0.2747
     13 N           6.1391   -4.3615   26.5040 N.am    1  UNL1       -0.2693
     14 H           5.2968   -4.7230   26.1449 H       1  UNL1        0.1563
     15 C           6.3502   -4.2838   27.9870 C.ar    1  UNL1        0.1343
     16 C           6.6872   -5.5227   28.7626 C.ar    1  UNL1        0.0368
     17 C           6.8982   -5.4449   30.2456 C.ar    1  UNL1        0.0341
     18 C           6.7723   -4.1283   30.9531 C.ar    1  UNL1        0.1593
     19 F           6.9833   -4.0506   32.4361 F       1  UNL1       -0.2025
     20 C           6.4353   -2.8894   30.1775 C.ar    1  UNL1        0.1298
     21 N           6.2242   -2.9671   28.6945 N.ar    1  UNL1       -0.2267
     22 C           5.1184   -2.7861   23.4960 C.3     1  UNL1        0.2098
     23 O           5.0281   -1.3171   23.2065 O.3     1  UNL1       -0.4723
     24 C           0.0865    1.7379   24.7056 C.3     1  UNL1        0.0736
     25 C           1.3219    0.9742   24.3309 C.ar    1  UNL1        0.1394
     26 N           2.3569    0.6647   25.3715 N.ar    1  UNL1       -0.2260
     27 C           3.5923   -0.0991   24.9967 C.ar    1  UNL1        0.1382
     28 C           3.7927   -0.5533   23.5813 C.ar    1  UNL1        0.1711
     29 C           2.7577   -0.2439   22.5407 C.ar    1  UNL1        0.0960
     30 C           2.9581   -0.6982   21.1252 C.3     1  UNL1        0.0555
     31 N           1.5223    0.5199   22.9154 N.ar    1  UNL1       -0.2319
@<TRIPOS>BOND
     1    24    25    1
     2    25    26   ar
     3    26    27   ar
     4    27    28   ar
     5    28    23    1
     6    23    22    1
     7     1    22    1
     8     1     4    1
     9     4     5   ar
    10     5     6   ar
    11     6     7   ar
    12     7     8   ar
    13     8     9    1
    14     8    10   ar
    15     1     2    1
    16     2     3    1
    17     3    11    1
    18    11    12    2
    19    11    13   am
    20    13    15    1
    21    15    16   ar
    22    16    17   ar
    23    17    18   ar
    24    18    19    1
    25    18    20   ar
    26    20    21   ar
    27    28    29   ar
    28    29    30    1
    29    29    31   ar
    30    31    25   ar
    31     3     1    1
    32    21    15   ar
    33    10     4   ar
    34    13    14    1
@<TRIPOS>MOLECULE
*****
 31 34 0 0 0
SMALL
GASTEIGER

@<TRIPOS>ATOM
      1 C          -8.4633  -17.1929   23.2969 C.3     1  UNL1        0.0679
      2 C          -8.0646  -16.6604   24.6413 C.3     1  UNL1        0.0177
      3 C          -7.0286  -16.8539   23.5740 C.3     1  UNL1        0.0845
      4 C          -9.9373  -17.3681   23.5127 C.ar    1  UNL1       -0.0166
      5 C         -10.4414  -18.4900   24.3715 C.ar    1  UNL1       -0.0040
      6 C         -11.9153  -18.6652   24.5874 C.ar    1  UNL1        0.0020
      7 C         -12.8852  -17.7186   23.9446 C.ar    1  UNL1        0.0296
      8 C         -12.3812  -16.5968   23.0858 C.ar    1  UNL1        0.1398
      9 F         -13.3510  -15.6502   22.4430 F       1  UNL1       -0.2042
     10 C         -10.9072  -16.4216   22.8699 C.ar    1  UNL1        0.0255
     11 C          -5.6021  -16.7698   23.1177 C.2     1  UNL1        0.2271
     12 O          -4.7548  -15.5980   23.5164 O.2     1  UNL1       -0.2747
     13 N          -5.0229  -17.8577   22.2626 N.am    1  UNL1       -0.2693
     14 H          -5.5790  -18.6268   22.0009 H       1  UNL1        0.1563
     15 C          -3.5965  -17.7737   21.8063 C.ar    1  UNL1        0.1343
     16 C          -2.8540  -19.0222   21.4320 C.ar    1  UNL1        0.0368
     17 C          -1.4276  -18.9382   20.9757 C.ar    1  UNL1        0.0341
     18 C          -0.7436  -17.6058   20.8937 C.ar    1  UNL1        0.1593
     19 F           0.6828  -17.5218   20.4374 F       1  UNL1       -0.2025
     20 C          -1.4861  -16.3574   21.2680 C.ar    1  UNL1        0.1298
     21 N          -2.9125  -16.4413   21.7243 N.ar    1  UNL1       -0.2267
     22 C          -8.3500  -17.6646   21.8775 C.3     1  UNL1        0.2098
     23 O          -7.8813  -19.0593   21.5857 O.3     1  UNL1       -0.4723
     24 C          -9.3564  -21.6974   16.4026 C.3     1  UNL1        0.0736
     25 C          -8.9876  -21.0378   17.6984 C.ar    1  UNL1        0.1394
     26 N          -9.9302  -20.0620   18.3382 N.ar    1  UNL1       -0.2260
     27 C          -9.5614  -19.4025   19.6340 C.ar    1  UNL1        0.1382
     28 C          -8.2501  -19.7188   20.2900 C.ar    1  UNL1        0.1711
     29 C          -7.3076  -20.6946   19.6502 C.ar    1  UNL1        0.0960
     30 C          -5.9962  -21.0110   20.3062 C.3     1  UNL1        0.0555
     31 N          -7.6764  -21.3542   18.3544 N.ar    1  UNL1       -0.2319
@<TRIPOS>BOND
     1    24    25    1
     2    25    26   ar
     3    26    27   ar
     4    27    28   ar
     5    28    23    1
     6    23    22    1
     7     1    22    1
     8     1     4    1
     9     4     5   ar
    10     5     6   ar
    11     6     7   ar
    12     7     8   ar
    13     8     9    1
    14     8    10   ar
    15     1     2    1
    16     2     3    1
    17     3    11    1
    18    11    12    2
    19    11    13   am
    20    13    15    1
    21    15    16   ar
    22    16    17   ar
    23    17    18   ar
    24    18    19    1
    25    18    20   ar
    26    20    21   ar
    27    28    29   ar
    28    29    30    1
    29    29    31   ar
    30    31    25   ar
    31     3     1    1
    32    21    15   ar
    33    10     4   ar
    34    13    14    1
@<TRIPOS>MOLECULE
*****
 31 34 0 0 0
SMALL
GASTEIGER

@<TRIPOS>ATOM
      1 C           5.6537   -3.2077   22.9911 C.3     1  UNL1        0.0679
      2 C           6.8662   -3.8818   22.4208 C.3     1  UNL1        0.0177
      3 C           6.6733   -3.8175   23.9068 C.3     1  UNL1        0.0845
      4 C           4.9731   -2.7804   21.7245 C.ar    1  UNL1       -0.0166
      5 C           3.7333   -1.9383   21.7866 C.ar    1  UNL1       -0.0040
      6 C           3.0528   -1.5110   20.5200 C.ar    1  UNL1        0.0020
      7 C           3.6120   -1.9258   19.1914 C.ar    1  UNL1        0.0296
      8 C           4.8518   -2.7679   19.1294 C.ar    1  UNL1        0.1398
      9 F           5.4110   -3.1827   17.8008 F       1  UNL1       -0.2042
     10 C           5.5323   -3.1952   20.3960 C.ar    1  UNL1        0.0255
     11 C           7.1505   -4.1325   25.2936 C.2     1  UNL1        0.2271
     12 O           8.2961   -3.3657   25.8849 O.2     1  UNL1       -0.2747
     13 N           6.4822   -5.2145   26.0891 N.am    1  UNL1       -0.2693
     14 H           5.7303   -5.7178   25.7011 H       1  UNL1        0.1563
     15 C           6.9594   -5.5295   27.4758 C.ar    1  UNL1        0.1343
     16 C           8.0903   -6.4937   27.6789 C.ar    1  UNL1        0.0368
     17 C           8.5675   -6.8087   29.0657 C.ar    1  UNL1        0.0341
     18 C           7.9137   -6.1595   30.2494 C.ar    1  UNL1        0.1593
     19 F           8.3909   -6.4745   31.6361 F       1  UNL1       -0.2025
     20 C           6.7828   -5.1953   30.0462 C.ar    1  UNL1        0.1298
     21 N           6.3056   -4.8803   28.6595 N.ar    1  UNL1       -0.2267
     22 C           4.6776   -2.6819   24.0015 C.3     1  UNL1        0.2098
     23 O           4.9893   -1.4283   24.7638 O.3     1  UNL1       -0.4723
     24 C           1.1485    0.5988   28.9038 C.3     1  UNL1        0.0736
     25 C           2.1087    0.0920   27.8688 C.ar    1  UNL1        0.1394
     26 N           2.9921   -1.0808   28.1757 N.ar    1  UNL1       -0.2260
     27 C           3.9523   -1.5875   27.1407 C.ar    1  UNL1        0.1382
     28 C           4.0291   -0.9216   25.7988 C.ar    1  UNL1        0.1711
     29 C           3.1457    0.2512   25.4920 C.ar    1  UNL1        0.0960
     30 C           3.2224    0.9172   24.1501 C.3     1  UNL1        0.0555
     31 N           2.1855    0.7579   26.5270 N.ar    1  UNL1       -0.2319
@<TRIPOS>BOND
     1    24    25    1
     2    25    26   ar
     3    26    27   ar
     4    27    28   ar
     5    28    23    1
     6    23    22    1
     7     1    22    1
     8     1     4    1
     9     4     5   ar
    10     5     6   ar
    11     6     7   ar
    12     7     8   ar
    13     8     9    1
    14     8    10   ar
    15     1     2    1
    16     2     3    1
    17     3    11    1
    18    11    12    2
    19    11    13   am
    20    13    15    1
    21    15    16   ar
    22    16    17   ar
    23    17    18   ar
    24    18    19    1
    25    18    20   ar
    26    20    21   ar
    27    28    29   ar
    28    29    30    1
    29    29    31   ar
    30    31    25   ar
    31     3     1    1
    32    21    15   ar
    33    10     4   ar
    34    13    14    1
