@<TRIPOS>MOLECULE
*****
 34 38 0 0 0
SMALL
GASTEIGER

@<TRIPOS>ATOM
      1 N          -1.1068    3.6523   20.8943 N.ar    1  UNL1       -0.2299
      2 C           0.2546    3.1468   20.5189 C.ar    1  UNL1        0.2753
      3 O           1.2345    2.7658   21.5889 O.2     1  UNL1       -0.2656
      4 C           0.6362    3.0222   19.0737 C.ar    1  UNL1        0.0603
      5 C          -0.3437    3.4032   18.0037 C.ar    1  UNL1        0.0454
      6 C          -1.7051    3.9087   18.3791 C.ar    1  UNL1        0.1850
      7 N          -2.8728    4.3569   17.5511 N.ar    1  UNL1       -0.1270
      8 N          -3.9760    4.7585   18.4847 N.ar    1  UNL1       -0.1269
      9 C          -3.4902    4.5585   19.8897 C.ar    1  UNL1        0.1878
     10 N          -2.0867    4.0332   19.8245 N.ar    1  UNL1       -0.2084
     11 C          -4.2708    4.8351   21.1404 C.ar    1  UNL1        0.0755
     12 C          -4.9775    3.7161   21.8463 C.ar    1  UNL1        0.1439
     13 F          -4.9035    2.3204   21.3016 F       1  UNL1       -0.2040
     14 C          -5.7582    3.9927   23.0970 C.ar    1  UNL1        0.0298
     15 C          -5.8321    5.3883   23.6416 C.ar    1  UNL1        0.0032
     16 C          -5.1254    6.5073   22.9356 C.ar    1  UNL1        0.0116
     17 C          -4.3448    6.2308   21.6851 C.ar    1  UNL1        0.0628
     18 CL         -3.6381    7.3498   20.9791 Cl      1  UNL1       -0.0821
     19 C           1.9977    2.5167   18.6983 C.ar    1  UNL1        0.0009
     20 C           2.2421    1.0419   18.5737 C.ar    1  UNL1        0.0043
     21 C           3.6035    0.5364   18.1983 C.ar    1  UNL1        0.0533
     22 C           4.7205    1.5056   17.9475 C.ar    1  UNL1        0.0042
     23 C           4.4761    2.9803   18.0720 C.ar    1  UNL1       -0.0041
     24 C           3.1147    3.4858   18.4474 C.ar    1  UNL1       -0.0217
     25 C           2.8702    4.9606   18.5720 C.3     1  UNL1        0.0310
     26 C           3.8479   -0.9383   18.0737 C.2     1  UNL1        0.2458
     27 O           4.4342   -1.4973   16.8112 O.2     1  UNL1       -0.2701
     28 N           3.5060   -1.8539   19.2116 N.am    1  UNL1       -0.3025
     29 H           3.1212   -1.4870   20.0402 H       1  UNL1        0.1497
     30 C           3.7504   -3.3287   19.0869 C.3     1  UNL1        0.0720
     31 C           4.6484   -4.4693   18.7093 C.3     1  UNL1        0.0213
     32 C           3.2757   -4.7423   19.2487 C.3     1  UNL1        0.0213
     33 C          -1.1182    5.0099   23.1095 C.3     1  UNL1        0.0285
     34 C          -1.4883    3.7768   22.3397 C.3     1  UNL1        0.1293
@<TRIPOS>BOND
     1    33    34    1
     2    34     1    1
     3     1     2   ar
     4     2     3    2
     5     2     4   ar
     6     4    19    1
     7    19    20   ar
     8    20    21   ar
     9    21    26    1
    10    26    27    2
    11    26    28   am
    12    28    30    1
    13    30    31    1
    14    31    32    1
    15    21    22   ar
    16    22    23   ar
    17    23    24   ar
    18    24    25    1
    19     4     5   ar
    20     5     6   ar
    21     6     7   ar
    22     7     8   ar
    23     8     9   ar
    24     9    11    1
    25    11    12   ar
    26    12    13    1
    27    12    14   ar
    28    14    15   ar
    29    15    16   ar
    30    16    17   ar
    31    17    18    1
    32     9    10   ar
    33    10     1   ar
    34    24    19   ar
    35    10     6   ar
    36    32    30    1
    37    17    11   ar
    38    28    29    1
@<TRIPOS>MOLECULE
*****
 34 38 0 0 0
SMALL
GASTEIGER

@<TRIPOS>ATOM
      1 N           4.2361    0.1863   20.5530 N.ar    1  UNL1       -0.2299
      2 C           3.2557    1.3112   20.4002 C.ar    1  UNL1        0.2753
      3 O           2.9441    2.1984   21.5690 O.2     1  UNL1       -0.2656
      4 C           2.5870    1.5490   19.0788 C.ar    1  UNL1        0.0603
      5 C           2.8987    0.6618   17.9101 C.ar    1  UNL1        0.0454
      6 C           3.8791   -0.4631   18.0629 C.ar    1  UNL1        0.1850
      7 N           4.3818   -1.4944   17.0967 N.ar    1  UNL1       -0.1270
      8 N           5.3613   -2.3696   17.8210 N.ar    1  UNL1       -0.1269
      9 C           5.4639   -1.8791   19.2349 C.ar    1  UNL1        0.1878
     10 N           4.5478   -0.7008   19.3844 N.ar    1  UNL1       -0.2084
     11 C           6.3304   -2.4643   20.3104 C.ar    1  UNL1        0.0755
     12 C           7.7459   -1.9946   20.4715 C.ar    1  UNL1        0.1439
     13 F           8.2947   -0.9398   19.5571 F       1  UNL1       -0.2040
     14 C           8.6125   -2.5797   21.5470 C.ar    1  UNL1        0.0298
     15 C           8.0636   -3.6345   22.4614 C.ar    1  UNL1        0.0032
     16 C           6.6481   -4.1041   22.3003 C.ar    1  UNL1        0.0116
     17 C           5.7816   -3.5191   21.2248 C.ar    1  UNL1        0.0628
     18 CL          4.3662   -3.9888   21.0637 Cl      1  UNL1       -0.0821
     19 C           1.6066    2.6740   18.9260 C.ar    1  UNL1        0.0009
     20 C           0.1768    2.4839   19.3380 C.ar    1  UNL1        0.0043
     21 C          -0.8036    3.6088   19.1853 C.ar    1  UNL1        0.0533
     22 C          -0.3543    4.9238   18.6205 C.ar    1  UNL1        0.0042
     23 C           1.0755    5.1139   18.2085 C.ar    1  UNL1       -0.0041
     24 C           2.0559    3.9889   18.3613 C.ar    1  UNL1       -0.0217
     25 C           3.4857    4.1789   17.9493 C.3     1  UNL1        0.0310
     26 C          -2.2333    3.4188   19.5972 C.2     1  UNL1        0.2458
     27 O          -2.5559    2.7332   20.8918 O.2     1  UNL1       -0.2701
     28 N          -3.3404    3.9143   18.7147 N.am    1  UNL1       -0.3025
     29 H          -3.1286    4.3643   17.8650 H       1  UNL1        0.1497
     30 C          -4.7701    3.7242   19.1268 C.3     1  UNL1        0.0720
     31 C          -5.8649    3.8979   20.1374 C.3     1  UNL1        0.0213
     32 C          -6.1517    3.2212   18.8297 C.3     1  UNL1        0.0213
     33 C           4.1678   -0.7615   22.9711 C.3     1  UNL1        0.0285
     34 C           4.9049   -0.0514   21.8745 C.3     1  UNL1        0.1293
@<TRIPOS>BOND
     1    33    34    1
     2    34     1    1
     3     1     2   ar
     4     2     3    2
     5     2     4   ar
     6     4    19    1
     7    19    20   ar
     8    20    21   ar
     9    21    26    1
    10    26    27    2
    11    26    28   am
    12    28    30    1
    13    30    31    1
    14    31    32    1
    15    21    22   ar
    16    22    23   ar
    17    23    24   ar
    18    24    25    1
    19     4     5   ar
    20     5     6   ar
    21     6     7   ar
    22     7     8   ar
    23     8     9   ar
    24     9    11    1
    25    11    12   ar
    26    12    13    1
    27    12    14   ar
    28    14    15   ar
    29    15    16   ar
    30    16    17   ar
    31    17    18    1
    32     9    10   ar
    33    10     1   ar
    34    24    19   ar
    35    10     6   ar
    36    32    30    1
    37    17    11   ar
    38    28    29    1
@<TRIPOS>MOLECULE
*****
 34 38 0 0 0
SMALL
GASTEIGER

@<TRIPOS>ATOM
      1 N           5.1528   -0.6187   22.3807 N.ar    1  UNL1       -0.2299
      2 C           5.0028   -0.4125   23.8588 C.ar    1  UNL1        0.2753
      3 O           4.6761    0.9491   24.3967 O.2     1  UNL1       -0.2656
      4 C           5.1795   -1.5677   24.7990 C.ar    1  UNL1        0.0603
      5 C           5.5063   -2.9294   24.2611 C.ar    1  UNL1        0.0454
      6 C           5.6563   -3.1356   22.7829 C.ar    1  UNL1        0.1850
      7 N           5.9726   -4.3535   21.9665 N.ar    1  UNL1       -0.1270
      8 N           5.9915   -3.9509   20.5217 N.ar    1  UNL1       -0.1269
      9 C           5.6867   -2.4841   20.4452 C.ar    1  UNL1        0.1878
     10 N           5.4795   -1.9803   21.8427 N.ar    1  UNL1       -0.2084
     11 C           5.6037   -1.6651   19.1912 C.ar    1  UNL1        0.0755
     12 C           4.2814   -1.4660   18.5117 C.ar    1  UNL1        0.1439
     13 F           3.0420   -2.0858   19.0861 F       1  UNL1       -0.2040
     14 C           4.1983   -0.6469   17.2578 C.ar    1  UNL1        0.0298
     15 C           5.4375   -0.0271   16.6834 C.ar    1  UNL1        0.0032
     16 C           6.7599   -0.2263   17.3630 C.ar    1  UNL1        0.0116
     17 C           6.8430   -1.0453   18.6168 C.ar    1  UNL1        0.0628
     18 CL          8.1653   -1.2445   19.2963 Cl      1  UNL1       -0.0821
     19 C           5.0295   -1.3615   26.2772 C.ar    1  UNL1        0.0009
     20 C           3.6714   -1.1212   26.8670 C.ar    1  UNL1        0.0043
     21 C           3.5214   -0.9150   28.3451 C.ar    1  UNL1        0.0533
     22 C           4.7295   -0.9490   29.2335 C.ar    1  UNL1        0.0042
     23 C           6.0876   -1.1893   28.6438 C.ar    1  UNL1       -0.0041
     24 C           6.2376   -1.3955   27.1657 C.ar    1  UNL1       -0.0217
     25 C           7.5957   -1.6358   26.5758 C.3     1  UNL1        0.0310
     26 C           2.1632   -0.6747   28.9348 C.2     1  UNL1        0.2458
     27 O           1.9683   -0.7416   30.4207 O.2     1  UNL1       -0.2701
     28 N           1.0002   -0.3674   28.0388 N.am    1  UNL1       -0.3025
     29 H           1.1282   -0.3235   27.0636 H       1  UNL1        0.1497
     30 C          -0.3580   -0.1271   28.6286 C.3     1  UNL1        0.0720
     31 C          -1.4070    0.8200   29.1312 C.3     1  UNL1        0.0213
     32 C          -1.6612   -0.6582   29.1476 C.3     1  UNL1        0.0213
     33 C           6.1088    1.4910   21.2038 C.3     1  UNL1        0.0285
     34 C           4.9761    0.5366   21.4405 C.3     1  UNL1        0.1293
@<TRIPOS>BOND
     1    33    34    1
     2    34     1    1
     3     1     2   ar
     4     2     3    2
     5     2     4   ar
     6     4    19    1
     7    19    20   ar
     8    20    21   ar
     9    21    26    1
    10    26    27    2
    11    26    28   am
    12    28    30    1
    13    30    31    1
    14    31    32    1
    15    21    22   ar
    16    22    23   ar
    17    23    24   ar
    18    24    25    1
    19     4     5   ar
    20     5     6   ar
    21     6     7   ar
    22     7     8   ar
    23     8     9   ar
    24     9    11    1
    25    11    12   ar
    26    12    13    1
    27    12    14   ar
    28    14    15   ar
    29    15    16   ar
    30    16    17   ar
    31    17    18    1
    32     9    10   ar
    33    10     1   ar
    34    24    19   ar
    35    10     6   ar
    36    32    30    1
    37    17    11   ar
    38    28    29    1
@<TRIPOS>MOLECULE
*****
 34 38 0 0 0
SMALL
GASTEIGER

@<TRIPOS>ATOM
      1 N           6.8326   -2.3138   29.2516 N.ar    1  UNL1       -0.2299
      2 C           6.9637   -2.4995   27.7689 C.ar    1  UNL1        0.2753
      3 O           7.0248   -1.3034   26.8658 O.2     1  UNL1       -0.2656
      4 C           7.0337   -3.8812   27.1894 C.ar    1  UNL1        0.0603
      5 C           6.9726   -5.0773   28.0926 C.ar    1  UNL1        0.0454
      6 C           6.8415   -4.8916   29.5752 C.ar    1  UNL1        0.1850
      7 N           6.7576   -5.8734   30.7062 N.ar    1  UNL1       -0.1270
      8 N           6.6357   -5.0984   31.9847 N.ar    1  UNL1       -0.1269
      9 C           6.6443   -3.6376   31.6439 C.ar    1  UNL1        0.1878
     10 N           6.7715   -3.5098   30.1547 N.ar    1  UNL1       -0.2084
     11 C           6.5435   -2.5038   32.6207 C.ar    1  UNL1        0.0755
     12 C           5.2085   -2.1154   33.1837 C.ar    1  UNL1        0.1439
     13 F           3.9744   -2.8609   32.7699 F       1  UNL1       -0.2040
     14 C           5.1076   -0.9815   34.1606 C.ar    1  UNL1        0.0298
     15 C           6.3416   -0.2361   34.5744 C.ar    1  UNL1        0.0032
     16 C           7.6767   -0.6245   34.0113 C.ar    1  UNL1        0.0116
     17 C           7.7776   -1.7583   33.0345 C.ar    1  UNL1        0.0628
     18 CL          9.1126   -2.1466   32.4715 Cl      1  UNL1       -0.0821
     19 C           7.1648   -4.0669   25.7067 C.ar    1  UNL1        0.0009
     20 C           6.0450   -3.6555   24.7974 C.ar    1  UNL1        0.0043
     21 C           6.1761   -3.8412   23.3147 C.ar    1  UNL1        0.0533
     22 C           7.4270   -4.4383   22.7413 C.ar    1  UNL1        0.0042
     23 C           8.5468   -4.8498   23.6507 C.ar    1  UNL1       -0.0041
     24 C           8.4157   -4.6641   25.1333 C.ar    1  UNL1       -0.0217
     25 C           9.5354   -5.0755   26.0427 C.3     1  UNL1        0.0310
     26 C           5.0564   -3.4297   22.4054 C.2     1  UNL1        0.2458
     27 O           4.3010   -4.4674   21.6290 O.2     1  UNL1       -0.2701
     28 N           4.6920   -1.9807   22.2725 N.am    1  UNL1       -0.3025
     29 H           5.1878   -1.2997   22.7821 H       1  UNL1        0.1497
     30 C           3.5722   -1.5694   21.3632 C.3     1  UNL1        0.0720
     31 C           2.2824   -0.8369   21.1399 C.3     1  UNL1        0.0213
     32 C           2.9225   -1.5895   20.0113 C.3     1  UNL1        0.0213
     33 C           5.4396   -0.2356   29.9522 C.3     1  UNL1        0.0285
     34 C           6.7626   -0.9320   29.8311 C.3     1  UNL1        0.1293
@<TRIPOS>BOND
     1    33    34    1
     2    34     1    1
     3     1     2   ar
     4     2     3    2
     5     2     4   ar
     6     4    19    1
     7    19    20   ar
     8    20    21   ar
     9    21    26    1
    10    26    27    2
    11    26    28   am
    12    28    30    1
    13    30    31    1
    14    31    32    1
    15    21    22   ar
    16    22    23   ar
    17    23    24   ar
    18    24    25    1
    19     4     5   ar
    20     5     6   ar
    21     6     7   ar
    22     7     8   ar
    23     8     9   ar
    24     9    11    1
    25    11    12   ar
    26    12    13    1
    27    12    14   ar
    28    14    15   ar
    29    15    16   ar
    30    16    17   ar
    31    17    18    1
    32     9    10   ar
    33    10     1   ar
    34    24    19   ar
    35    10     6   ar
    36    32    30    1
    37    17    11   ar
    38    28    29    1
@<TRIPOS>MOLECULE
*****
 34 38 0 0 0
SMALL
GASTEIGER

@<TRIPOS>ATOM
      1 N          -0.5731    3.7604   22.1117 N.ar    1  UNL1       -0.2299
      2 C           0.6825    3.2996   21.4328 C.ar    1  UNL1        0.2753
      3 O           1.9217    3.0465   22.2395 O.2     1  UNL1       -0.2656
      4 C           0.6991    3.0919   19.9475 C.ar    1  UNL1        0.0603
      5 C          -0.5400    3.3449   19.1408 C.ar    1  UNL1        0.0454
      6 C          -1.7957    3.8057   19.8197 C.ar    1  UNL1        0.1850
      7 N          -3.1604    4.1335   19.2905 N.ar    1  UNL1       -0.1270
      8 N          -4.0204    4.5438   20.4490 N.ar    1  UNL1       -0.1269
      9 C          -3.1873    4.4696   21.6941 C.ar    1  UNL1        0.1878
     10 N          -1.8122    4.0134   21.3052 N.ar    1  UNL1       -0.2084
     11 C          -3.6482    4.7945   23.0840 C.ar    1  UNL1        0.0755
     12 C          -3.2666    6.1010   23.7145 C.ar    1  UNL1        0.1439
     13 F          -2.4240    7.0825   22.9550 F       1  UNL1       -0.2040
     14 C          -3.7275    6.4260   25.1045 C.ar    1  UNL1        0.0298
     15 C          -4.5700    5.4445   25.8639 C.ar    1  UNL1        0.0032
     16 C          -4.9516    4.1380   25.2334 C.ar    1  UNL1        0.0116
     17 C          -4.4907    3.8130   23.8435 C.ar    1  UNL1        0.0628
     18 CL         -4.8723    2.5066   23.2130 Cl      1  UNL1       -0.0821
     19 C           1.9549    2.6310   19.2685 C.ar    1  UNL1        0.0009
     20 C           2.2035    1.1657   19.0658 C.ar    1  UNL1        0.0043
     21 C           3.4591    0.7049   18.3869 C.ar    1  UNL1        0.0533
     22 C           4.4663    1.7094   17.9108 C.ar    1  UNL1        0.0042
     23 C           4.2177    3.1747   18.1136 C.ar    1  UNL1       -0.0041
     24 C           2.9620    3.6355   18.7924 C.ar    1  UNL1       -0.0217
     25 C           2.7134    5.1008   18.9952 C.3     1  UNL1        0.0310
     26 C           3.7077   -0.7604   18.1841 C.2     1  UNL1        0.2458
     27 O           4.1826   -1.2633   16.8531 O.2     1  UNL1       -0.2701
     28 N           3.4814   -1.7227   19.3123 N.am    1  UNL1       -0.3025
     29 H           3.1697   -1.3926   20.1858 H       1  UNL1        0.1497
     30 C           3.7299   -3.1880   19.1094 C.3     1  UNL1        0.0720
     31 C           3.2442   -4.6064   19.1541 C.3     1  UNL1        0.0213
     32 C           4.6464   -4.3074   18.7133 C.3     1  UNL1        0.0213
     33 C          -0.8924    2.8184   24.5119 C.3     1  UNL1        0.0285
     34 C          -0.5897    3.9681   23.5972 C.3     1  UNL1        0.1293
@<TRIPOS>BOND
     1    33    34    1
     2    34     1    1
     3     1     2   ar
     4     2     3    2
     5     2     4   ar
     6     4    19    1
     7    19    20   ar
     8    20    21   ar
     9    21    26    1
    10    26    27    2
    11    26    28   am
    12    28    30    1
    13    30    31    1
    14    31    32    1
    15    21    22   ar
    16    22    23   ar
    17    23    24   ar
    18    24    25    1
    19     4     5   ar
    20     5     6   ar
    21     6     7   ar
    22     7     8   ar
    23     8     9   ar
    24     9    11    1
    25    11    12   ar
    26    12    13    1
    27    12    14   ar
    28    14    15   ar
    29    15    16   ar
    30    16    17   ar
    31    17    18    1
    32     9    10   ar
    33    10     1   ar
    34    24    19   ar
    35    10     6   ar
    36    32    30    1
    37    17    11   ar
    38    28    29    1
@<TRIPOS>MOLECULE
*****
 34 38 0 0 0
SMALL
GASTEIGER

@<TRIPOS>ATOM
      1 N           1.8438    0.8689   19.5450 N.ar    1  UNL1       -0.2299
      2 C           0.5262    1.5295   19.8239 C.ar    1  UNL1        0.2753
      3 O          -0.5796    0.7522   20.4744 O.2     1  UNL1       -0.2656
      4 C           0.3145    2.9671   19.4522 C.ar    1  UNL1        0.0603
      5 C           1.4203    3.7444   18.8017 C.ar    1  UNL1        0.0454
      6 C           2.7378    3.0838   18.5228 C.ar    1  UNL1        0.1850
      7 N           4.0030    3.5922   17.8976 N.ar    1  UNL1       -0.1270
      8 N           4.9967    2.4686   17.8829 N.ar    1  UNL1       -0.1269
      9 C           4.3456    1.2659   18.4990 C.ar    1  UNL1        0.1878
     10 N           2.9496    1.6461   18.8945 N.ar    1  UNL1       -0.2084
     11 C           4.9794   -0.0806   18.6867 C.ar    1  UNL1        0.0755
     12 C           4.7549   -1.1630   17.6728 C.ar    1  UNL1        0.1439
     13 F           3.8966   -0.8989   16.4713 F       1  UNL1       -0.2040
     14 C           5.3887   -2.5096   17.8604 C.ar    1  UNL1        0.0298
     15 C           6.2469   -2.7737   19.0618 C.ar    1  UNL1        0.0032
     16 C           6.4714   -1.6912   20.0757 C.ar    1  UNL1        0.0116
     17 C           5.8377   -0.3447   19.8882 C.ar    1  UNL1        0.0628
     18 CL          6.0622    0.7377   20.9020 Cl      1  UNL1       -0.0821
     19 C          -1.0032    3.6276   19.7311 C.ar    1  UNL1        0.0009
     20 C          -1.4251    3.8918   21.1461 C.ar    1  UNL1        0.0043
     21 C          -2.7426    4.5523   21.4250 C.ar    1  UNL1        0.0533
     22 C          -3.6382    4.9487   20.2889 C.ar    1  UNL1        0.0042
     23 C          -3.2163    4.6845   18.8739 C.ar    1  UNL1       -0.0041
     24 C          -1.8988    4.0240   18.5950 C.ar    1  UNL1       -0.0217
     25 C          -1.4767    3.7598   17.1800 C.3     1  UNL1        0.0310
     26 C          -3.1645    4.8165   22.8400 C.2     1  UNL1        0.2458
     27 O          -3.1023    6.2093   23.3935 O.2     1  UNL1       -0.2701
     28 N          -3.6487    3.6880   23.7013 N.am    1  UNL1       -0.3025
     29 H          -3.6896    2.7739   23.3380 H       1  UNL1        0.1497
     30 C          -4.0706    3.9522   25.1164 C.3     1  UNL1        0.0720
     31 C          -3.7948    3.8810   26.5890 C.3     1  UNL1        0.0213
     32 C          -5.0774    4.4812   26.0944 C.3     1  UNL1        0.0213
     33 C           2.5026   -0.9271   21.3030 C.3     1  UNL1        0.0285
     34 C           2.0555   -0.5688   19.9167 C.3     1  UNL1        0.1293
@<TRIPOS>BOND
     1    33    34    1
     2    34     1    1
     3     1     2   ar
     4     2     3    2
     5     2     4   ar
     6     4    19    1
     7    19    20   ar
     8    20    21   ar
     9    21    26    1
    10    26    27    2
    11    26    28   am
    12    28    30    1
    13    30    31    1
    14    31    32    1
    15    21    22   ar
    16    22    23   ar
    17    23    24   ar
    18    24    25    1
    19     4     5   ar
    20     5     6   ar
    21     6     7   ar
    22     7     8   ar
    23     8     9   ar
    24     9    11    1
    25    11    12   ar
    26    12    13    1
    27    12    14   ar
    28    14    15   ar
    29    15    16   ar
    30    16    17   ar
    31    17    18    1
    32     9    10   ar
    33    10     1   ar
    34    24    19   ar
    35    10     6   ar
    36    32    30    1
    37    17    11   ar
    38    28    29    1
@<TRIPOS>MOLECULE
*****
 34 38 0 0 0
SMALL
GASTEIGER

@<TRIPOS>ATOM
      1 N           1.9414    2.0427   27.3694 N.ar    1  UNL1       -0.2299
      2 C           1.7787    2.2040   25.8870 C.ar    1  UNL1        0.2753
      3 O           2.8859    2.8040   25.0719 O.2     1  UNL1       -0.2656
      4 C           0.5091    1.7652   25.2197 C.ar    1  UNL1        0.0603
      5 C          -0.5980    1.1652   26.0348 C.ar    1  UNL1        0.0454
      6 C          -0.4353    1.0040   27.5172 C.ar    1  UNL1        0.1850
      7 N          -1.3463    0.4504   28.5725 N.ar    1  UNL1       -0.1270
      8 N          -0.6395    0.5471   29.8921 N.ar    1  UNL1       -0.1269
      9 C           0.7082    1.1604   29.6523 C.ar    1  UNL1        0.1878
     10 N           0.8344    1.4428   28.1845 N.ar    1  UNL1       -0.2084
     11 C           1.7473    1.4418   30.6968 C.ar    1  UNL1        0.0755
     12 C           2.6249    0.3340   31.1992 C.ar    1  UNL1        0.1439
     13 F           2.4635   -1.0552   30.6571 F       1  UNL1       -0.2040
     14 C           3.6641    0.6155   32.2438 C.ar    1  UNL1        0.0298
     15 C           3.8254    2.0046   32.7859 C.ar    1  UNL1        0.0032
     16 C           2.9477    3.1125   32.2835 C.ar    1  UNL1        0.0116
     17 C           1.9086    2.8311   31.2390 C.ar    1  UNL1        0.0628
     18 CL          1.0310    3.9389   30.7366 Cl      1  UNL1       -0.0821
     19 C           0.3464    1.9264   23.7372 C.ar    1  UNL1        0.0009
     20 C           0.9975    0.9521   22.8009 C.ar    1  UNL1        0.0043
     21 C           0.8349    1.1133   21.3185 C.ar    1  UNL1        0.0533
     22 C           0.0211    2.2489   20.7724 C.ar    1  UNL1        0.0042
     23 C          -0.6300    3.2232   21.7087 C.ar    1  UNL1       -0.0041
     24 C          -0.4673    3.0620   23.1911 C.ar    1  UNL1       -0.0217
     25 C          -1.1184    4.0364   24.1275 C.3     1  UNL1        0.0310
     26 C           1.4860    0.1389   20.3822 C.2     1  UNL1        0.2458
     27 O           1.1605    0.1737   18.9183 O.2     1  UNL1       -0.2701
     28 N           2.4624   -0.8702   20.9098 N.am    1  UNL1       -0.3025
     29 H           2.6759   -0.8930   21.8705 H       1  UNL1        0.1497
     30 C           3.1134   -1.8445   19.9734 C.3     1  UNL1        0.0720
     31 C           3.4807   -3.2538   19.6141 C.3     1  UNL1        0.0213
     32 C           3.8739   -2.1227   18.7107 C.3     1  UNL1        0.0213
     33 C           4.3886    1.5539   28.0921 C.3     1  UNL1        0.0285
     34 C           3.2112    2.4815   28.0366 C.3     1  UNL1        0.1293
@<TRIPOS>BOND
     1    33    34    1
     2    34     1    1
     3     1     2   ar
     4     2     3    2
     5     2     4   ar
     6     4    19    1
     7    19    20   ar
     8    20    21   ar
     9    21    26    1
    10    26    27    2
    11    26    28   am
    12    28    30    1
    13    30    31    1
    14    31    32    1
    15    21    22   ar
    16    22    23   ar
    17    23    24   ar
    18    24    25    1
    19     4     5   ar
    20     5     6   ar
    21     6     7   ar
    22     7     8   ar
    23     8     9   ar
    24     9    11    1
    25    11    12   ar
    26    12    13    1
    27    12    14   ar
    28    14    15   ar
    29    15    16   ar
    30    16    17   ar
    31    17    18    1
    32     9    10   ar
    33    10     1   ar
    34    24    19   ar
    35    10     6   ar
    36    32    30    1
    37    17    11   ar
    38    28    29    1
@<TRIPOS>MOLECULE
*****
 34 38 0 0 0
SMALL
GASTEIGER

@<TRIPOS>ATOM
      1 N           4.9309   -0.9125   22.1522 N.ar    1  UNL1       -0.2299
      2 C           5.8373   -1.3694   23.2565 C.ar    1  UNL1        0.2753
      3 O           6.3834   -0.3752   24.2382 O.2     1  UNL1       -0.2656
      4 C           6.1978   -2.8201   23.3791 C.ar    1  UNL1        0.0603
      5 C           5.6518   -3.8143   22.3974 C.ar    1  UNL1        0.0454
      6 C           4.7453   -3.3574   21.2931 C.ar    1  UNL1        0.1850
      7 N           4.0591   -4.1007   20.1856 N.ar    1  UNL1       -0.1270
      8 N           3.2746   -3.1093   19.3785 N.ar    1  UNL1       -0.1269
      9 C           3.4759   -1.7532   19.9872 C.ar    1  UNL1        0.1878
     10 N           4.3848   -1.9065   21.1705 N.ar    1  UNL1       -0.2084
     11 C           2.8739   -0.4692   19.4983 C.ar    1  UNL1        0.0755
     12 C           1.4316   -0.1638   19.7751 C.ar    1  UNL1        0.1439
     13 F           0.5914   -1.1425   20.5407 F       1  UNL1       -0.2040
     14 C           0.8296    1.1202   19.2863 C.ar    1  UNL1        0.0298
     15 C           1.6698    2.0988   18.5207 C.ar    1  UNL1        0.0032
     16 C           3.1121    1.7934   18.2439 C.ar    1  UNL1        0.0116
     17 C           3.7142    0.5095   18.7327 C.ar    1  UNL1        0.0628
     18 CL          5.1564    0.2042   18.4559 Cl      1  UNL1       -0.0821
     19 C           7.1043   -3.2770   24.4835 C.ar    1  UNL1        0.0009
     20 C           6.5675   -3.4427   25.8744 C.ar    1  UNL1        0.0043
     21 C           7.4740   -3.8995   26.9787 C.ar    1  UNL1        0.0533
     22 C           8.9173   -4.1907   26.6922 C.ar    1  UNL1        0.0042
     23 C           9.4541   -4.0250   25.3014 C.ar    1  UNL1       -0.0041
     24 C           8.5477   -3.5682   24.1971 C.ar    1  UNL1       -0.0217
     25 C           9.0844   -3.4024   22.8062 C.3     1  UNL1        0.0310
     26 C           6.9371   -4.0652   28.3695 C.2     1  UNL1        0.2458
     27 O           6.2136   -5.3232   28.7492 O.2     1  UNL1       -0.2701
     28 N           7.1239   -2.9731   29.3806 N.am    1  UNL1       -0.3025
     29 H           7.5988   -2.1475   29.1314 H       1  UNL1        0.1497
     30 C           6.5870   -3.1389   30.7714 C.3     1  UNL1        0.0720
     31 C           5.7250   -2.6510   31.8979 C.3     1  UNL1        0.0213
     32 C           6.5192   -3.9139   32.0538 C.3     1  UNL1        0.0213
     33 C           3.3825    1.0810   22.7674 C.3     1  UNL1        0.0285
     34 C           4.5704    0.5384   22.0296 C.3     1  UNL1        0.1293
@<TRIPOS>BOND
     1    33    34    1
     2    34     1    1
     3     1     2   ar
     4     2     3    2
     5     2     4   ar
     6     4    19    1
     7    19    20   ar
     8    20    21   ar
     9    21    26    1
    10    26    27    2
    11    26    28   am
    12    28    30    1
    13    30    31    1
    14    31    32    1
    15    21    22   ar
    16    22    23   ar
    17    23    24   ar
    18    24    25    1
    19     4     5   ar
    20     5     6   ar
    21     6     7   ar
    22     7     8   ar
    23     8     9   ar
    24     9    11    1
    25    11    12   ar
    26    12    13    1
    27    12    14   ar
    28    14    15   ar
    29    15    16   ar
    30    16    17   ar
    31    17    18    1
    32     9    10   ar
    33    10     1   ar
    34    24    19   ar
    35    10     6   ar
    36    32    30    1
    37    17    11   ar
    38    28    29    1
@<TRIPOS>MOLECULE
*****
 34 38 0 0 0
SMALL
GASTEIGER

@<TRIPOS>ATOM
      1 N           0.3374    4.2422   28.7172 N.ar    1  UNL1       -0.2299
      2 C          -0.3302    4.3813   27.3811 C.ar    1  UNL1        0.2753
      3 O          -0.4229    5.7273   26.7256 O.2     1  UNL1       -0.2656
      4 C          -0.9050    3.1745   26.7007 C.ar    1  UNL1        0.0603
      5 C          -0.8122    1.8284   27.3563 C.ar    1  UNL1        0.0454
      6 C          -0.1446    1.6894   28.6923 C.ar    1  UNL1        0.1850
      7 N           0.0953    0.5009   29.5755 N.ar    1  UNL1       -0.1270
      8 N           0.8183    0.9734   30.8019 N.ar    1  UNL1       -0.1269
      9 C           1.0254    2.4537   30.6765 C.ar    1  UNL1        0.1878
     10 N           0.4302    2.8962   29.3727 N.ar    1  UNL1       -0.2084
     11 C           1.7077    3.3366   31.6790 C.ar    1  UNL1        0.0755
     12 C           0.8942    4.1086   32.6751 C.ar    1  UNL1        0.1439
     13 F          -0.6017    3.9977   32.6686 F       1  UNL1       -0.2040
     14 C           1.5765    4.9914   33.6777 C.ar    1  UNL1        0.0298
     15 C           3.0723    5.1022   33.6841 C.ar    1  UNL1        0.0032
     16 C           3.8859    4.3302   32.6880 C.ar    1  UNL1        0.0116
     17 C           3.2036    3.4474   31.6855 C.ar    1  UNL1        0.0628
     18 CL          4.0172    2.6754   30.6895 Cl      1  UNL1       -0.0821
     19 C          -1.5726    3.3136   25.3646 C.ar    1  UNL1        0.0009
     20 C          -0.7846    3.0989   24.1065 C.ar    1  UNL1        0.0043
     21 C          -1.4522    3.2380   22.7704 C.ar    1  UNL1        0.0533
     22 C          -2.9078    3.5917   22.6926 C.ar    1  UNL1        0.0042
     23 C          -3.6958    3.8064   23.9507 C.ar    1  UNL1       -0.0041
     24 C          -3.0282    3.6673   25.2868 C.ar    1  UNL1       -0.0217
     25 C          -3.8162    3.8819   26.5450 C.3     1  UNL1        0.0310
     26 C          -0.6642    3.0234   21.5123 C.2     1  UNL1        0.2458
     27 O          -0.0805    4.1975   20.7835 O.2     1  UNL1       -0.2701
     28 N          -0.4598    1.6349   20.9829 N.am    1  UNL1       -0.3025
     29 H          -0.8429    0.8644   21.4613 H       1  UNL1        0.1497
     30 C           0.3282    1.4203   19.7248 C.3     1  UNL1        0.0720
     31 C           1.2372    0.5670   18.8908 C.3     1  UNL1        0.0213
     32 C           0.7841    1.9023   18.3794 C.3     1  UNL1        0.0213
     33 C           0.0050    6.4253   30.0859 C.3     1  UNL1        0.0285
     34 C           0.9123    5.4491   29.3976 C.3     1  UNL1        0.1293
@<TRIPOS>BOND
     1    33    34    1
     2    34     1    1
     3     1     2   ar
     4     2     3    2
     5     2     4   ar
     6     4    19    1
     7    19    20   ar
     8    20    21   ar
     9    21    26    1
    10    26    27    2
    11    26    28   am
    12    28    30    1
    13    30    31    1
    14    31    32    1
    15    21    22   ar
    16    22    23   ar
    17    23    24   ar
    18    24    25    1
    19     4     5   ar
    20     5     6   ar
    21     6     7   ar
    22     7     8   ar
    23     8     9   ar
    24     9    11    1
    25    11    12   ar
    26    12    13    1
    27    12    14   ar
    28    14    15   ar
    29    15    16   ar
    30    16    17   ar
    31    17    18    1
    32     9    10   ar
    33    10     1   ar
    34    24    19   ar
    35    10     6   ar
    36    32    30    1
    37    17    11   ar
    38    28    29    1
