@<TRIPOS>MOLECULE
*****
 39 42 0 0 0
SMALL
GASTEIGER

@<TRIPOS>ATOM
      1 C           6.7914   -2.4602   25.3576 C.3     1  UNL1        0.0777
      2 C           6.9021   -3.5790   26.3506 C.3     1  UNL1        0.0412
      3 C           7.3541   -4.9373   25.9026 C.3     1  UNL1        0.0951
      4 N           7.6954   -5.1768   24.4617 N.am    1  UNL1       -0.2794
      5 C           8.1474   -6.5351   24.0138 C.2     1  UNL1        0.2261
      6 C           8.2581   -7.6539   25.0068 C.3     1  UNL1        0.0948
      7 O           8.4886   -6.7746   22.5729 O.2     1  UNL1       -0.2749
      8 C           7.5846   -4.0580   23.4688 C.3     1  UNL1        0.0964
      9 C           7.1326   -2.6997   23.9167 C.3     1  UNL1        0.0539
     10 N           4.4430    0.4966   26.5793 N.am    1  UNL1       -0.2485
     11 C           4.8950   -0.8617   26.1314 C.2     1  UNL1        0.3058
     12 O           3.9026   -1.9799   26.0093 O.2     1  UNL1       -0.2524
     13 N           6.3394   -1.1018   25.8056 N.am    1  UNL1       -0.2901
     14 H           5.0943    1.2305   26.6594 H       1  UNL1        0.1583
     15 H           6.9907   -0.3679   25.8857 H       1  UNL1        0.1509
     16 C           0.8627    0.7447   28.0578 C.ar    1  UNL1        0.0803
     17 S           2.2901    0.2929   28.1505 S.2     1  UNL1       -0.0488
     18 C           2.9986    0.7367   26.9051 C.ar    1  UNL1        0.1664
     19 N           2.0091    1.4629   26.0427 N.ar    1  UNL1       -0.2282
     20 C           0.6891    1.4678   26.7551 C.ar    1  UNL1        0.0701
     21 C          -0.5815    2.0871   26.2530 C.3     1  UNL1        0.0528
     22 C          -1.3120   -0.4591   28.8136 C.3     1  UNL1        0.0779
     23 C          -0.2037    0.5139   29.0871 C.2     1  UNL1        0.1807
     24 O          -0.1618    1.2561   30.3898 O.2     1  UNL1       -0.2908
     25 C           7.0218   -1.5808   22.9238 C.3     1  UNL1        0.0754
     26 N           6.5233   -1.8562   21.5361 N.3     1  UNL1       -0.2726
     27 C           7.4991   -2.1044   20.4241 C.3     1  UNL1        0.0721
     28 C           7.0006   -2.3798   19.0365 C.3     1  UNL1        0.0174
     29 C           5.5263   -2.4070   18.7607 C.3     1  UNL1        0.0031
     30 C           4.5507   -2.1588   19.8727 C.3     1  UNL1        0.0204
     31 C           5.0492   -1.8834   21.2603 C.3     1  UNL1        0.0724
     32 C           3.0764   -2.1860   19.5969 C.3     1  UNL1        0.0277
     33 C           2.3097   -0.9013   19.4896 C.ar    1  UNL1       -0.0220
     34 C           2.7861    0.1816   18.5674 C.ar    1  UNL1       -0.0020
     35 C           2.0193    1.4664   18.4600 C.ar    1  UNL1        0.0293
     36 C           0.7762    1.6682   19.2749 C.ar    1  UNL1        0.1401
     37 F           0.0095    2.9530   19.1676 F       1  UNL1       -0.2042
     38 C           0.2999    0.5854   20.1971 C.ar    1  UNL1        0.0293
     39 C           1.0667   -0.6994   20.3045 C.ar    1  UNL1       -0.0020
@<TRIPOS>BOND
     1    22    23    1
     2    23    24    2
     3    23    16    1
     4    16    17   ar
     5    17    18   ar
     6    18    10    1
     7    10    11   am
     8    11    12    2
     9    11    13   am
    10     1    13    1
    11     1     2    1
    12     2     3    1
    13     3     4    1
    14     4     5   am
    15     5     6    1
    16     5     7    2
    17     4     8    1
    18     8     9    1
    19     9    25    1
    20    25    26    1
    21    26    27    1
    22    27    28    1
    23    28    29    1
    24    29    30    1
    25    30    32    1
    26    32    33    1
    27    33    34   ar
    28    34    35   ar
    29    35    36   ar
    30    36    37    1
    31    36    38   ar
    32    38    39   ar
    33    30    31    1
    34    18    19   ar
    35    19    20   ar
    36    20    21    1
    37    20    16   ar
    38     9     1    1
    39    31    26    1
    40    39    33   ar
    41    10    14    1
    42    13    15    1
@<TRIPOS>MOLECULE
*****
 39 42 0 0 0
SMALL
GASTEIGER

@<TRIPOS>ATOM
      1 C           6.1941   -2.9055   27.4045 C.3     1  UNL1        0.0777
      2 C           6.3946   -4.1924   28.1487 C.3     1  UNL1        0.0412
      3 C           6.8507   -5.4192   27.4160 C.3     1  UNL1        0.0951
      4 N           7.1063   -5.3591   25.9391 N.am    1  UNL1       -0.2794
      5 C           7.5624   -6.5860   25.2064 C.2     1  UNL1        0.2261
      6 C           7.7629   -7.8729   25.9506 C.3     1  UNL1        0.0948
      7 O           7.8180   -6.5260   23.7296 O.2     1  UNL1       -0.2749
      8 C           6.9058   -4.0723   25.1950 C.3     1  UNL1        0.0964
      9 C           6.4497   -2.8455   25.9277 C.3     1  UNL1        0.0539
     10 N           3.8614    0.0131   28.7426 N.am    1  UNL1       -0.2485
     11 C           4.3176   -1.2137   28.0099 C.2     1  UNL1        0.3058
     12 O           3.3532   -1.9758   27.1500 O.2     1  UNL1       -0.2524
     13 N           5.7380   -1.6786   28.1372 N.am    1  UNL1       -0.2901
     14 H           4.4944    0.5132   29.3070 H       1  UNL1        0.1583
     15 H           6.3709   -1.1785   28.7016 H       1  UNL1        0.1509
     16 C           0.4902    1.8178   28.0769 C.ar    1  UNL1        0.0803
     17 S           1.9864    1.7615   27.9862 S.2     1  UNL1       -0.0488
     18 C           2.4410    0.4780   28.6153 C.ar    1  UNL1        0.1664
     19 N           1.2257   -0.2591   29.0948 N.ar    1  UNL1       -0.2282
     20 C           0.0201    0.5690   28.7620 C.ar    1  UNL1        0.0701
     21 C          -1.4054    0.2110   29.0618 C.3     1  UNL1        0.0528
     22 C          -1.3547    2.6701   26.4583 C.3     1  UNL1        0.0779
     23 C          -0.3827    2.9279   27.5712 C.2     1  UNL1        0.1807
     24 O          -0.2834    4.2959   28.1784 O.2     1  UNL1       -0.2908
     25 C           6.2492   -1.5586   25.1835 C.3     1  UNL1        0.0754
     26 N           6.2787   -1.5470   23.6838 N.3     1  UNL1       -0.2726
     27 C           7.5183   -1.1090   22.9614 C.3     1  UNL1        0.0721
     28 C           7.5477   -1.0974   21.4618 C.3     1  UNL1        0.0174
     29 C           6.3377   -1.5238   20.6845 C.3     1  UNL1        0.0031
     30 C           5.0982   -1.9616   21.4069 C.3     1  UNL1        0.0204
     31 C           5.0687   -1.9732   22.9066 C.3     1  UNL1        0.0724
     32 C           3.8881   -2.3880   20.6296 C.3     1  UNL1        0.0277
     33 C           3.0349   -1.3603   19.9470 C.ar    1  UNL1       -0.0220
     34 C           3.4712   -0.7734   18.6373 C.ar    1  UNL1       -0.0020
     35 C           2.6179    0.2542   17.9546 C.ar    1  UNL1        0.0293
     36 C           1.3284    0.6949   18.5817 C.ar    1  UNL1        0.1401
     37 F           0.4752    1.7225   17.8990 F       1  UNL1       -0.2042
     38 C           0.8922    0.1079   19.8913 C.ar    1  UNL1        0.0293
     39 C           1.7455   -0.9197   20.5740 C.ar    1  UNL1       -0.0020
@<TRIPOS>BOND
     1    22    23    1
     2    23    24    2
     3    23    16    1
     4    16    17   ar
     5    17    18   ar
     6    18    10    1
     7    10    11   am
     8    11    12    2
     9    11    13   am
    10     1    13    1
    11     1     2    1
    12     2     3    1
    13     3     4    1
    14     4     5   am
    15     5     6    1
    16     5     7    2
    17     4     8    1
    18     8     9    1
    19     9    25    1
    20    25    26    1
    21    26    27    1
    22    27    28    1
    23    28    29    1
    24    29    30    1
    25    30    32    1
    26    32    33    1
    27    33    34   ar
    28    34    35   ar
    29    35    36   ar
    30    36    37    1
    31    36    38   ar
    32    38    39   ar
    33    30    31    1
    34    18    19   ar
    35    19    20   ar
    36    20    21    1
    37    20    16   ar
    38     9     1    1
    39    31    26    1
    40    39    33   ar
    41    10    14    1
    42    13    15    1
@<TRIPOS>MOLECULE
*****
 39 42 0 0 0
SMALL
GASTEIGER

@<TRIPOS>ATOM
      1 C           4.3216    0.5226   29.2491 C.3     1  UNL1        0.0777
      2 C           5.4491   -0.4660   29.2116 C.3     1  UNL1        0.0412
      3 C           5.6303   -1.4400   30.3378 C.3     1  UNL1        0.0951
      4 N           4.6840   -1.4254   31.5016 N.am    1  UNL1       -0.2794
      5 C           4.8652   -2.3994   32.6279 C.2     1  UNL1        0.2261
      6 C           5.9927   -3.3880   32.5904 C.3     1  UNL1        0.0948
      7 O           3.9190   -2.3848   33.7917 O.2     1  UNL1       -0.2749
      8 C           3.5566   -0.4367   31.5391 C.3     1  UNL1        0.0964
      9 C           3.3754    0.5372   30.4129 C.3     1  UNL1        0.0539
     10 N           3.4000    2.0048   25.6849 N.am    1  UNL1       -0.2485
     11 C           3.5813    1.0309   26.8111 C.2     1  UNL1        0.3058
     12 O           3.2034   -0.4089   26.6257 O.2     1  UNL1       -0.2524
     13 N           4.1404    1.4966   28.1228 N.am    1  UNL1       -0.2901
     14 H           3.6481    2.9498   25.8065 H       1  UNL1        0.1583
     15 H           4.3884    2.4416   28.2445 H       1  UNL1        0.1509
     16 C           1.3887    1.2738   22.4467 C.ar    1  UNL1        0.0803
     17 S           1.5547    1.9957   23.7511 S.2     1  UNL1       -0.0488
     18 C           2.8409    1.5391   24.3732 C.ar    1  UNL1        0.1664
     19 N           3.4699    0.5350   23.4533 N.ar    1  UNL1       -0.2282
     20 C           2.5723    0.3710   22.2627 C.ar    1  UNL1        0.0701
     21 C           2.8158   -0.5365   21.0934 C.3     1  UNL1        0.0528
     22 C          -0.4078    2.7678   21.3108 C.3     1  UNL1        0.0779
     23 C           0.2406    1.4276   21.4937 C.2     1  UNL1        0.1807
     24 O          -0.2592    0.2414   20.7238 O.2     1  UNL1       -0.2908
     25 C           2.2479    1.5259   30.4503 C.3     1  UNL1        0.0754
     26 N           1.1331    1.4304   29.4513 N.3     1  UNL1       -0.2726
     27 C           0.3987    0.1352   29.2686 C.3     1  UNL1        0.0721
     28 C          -0.7161    0.0396   28.2696 C.3     1  UNL1        0.0174
     29 C          -1.0965    1.2392   27.4532 C.3     1  UNL1        0.0031
     30 C          -0.3622    2.5343   27.6360 C.3     1  UNL1        0.0204
     31 C           0.7527    2.6299   28.6350 C.3     1  UNL1        0.0724
     32 C          -0.7426    3.7339   26.8196 C.3     1  UNL1        0.0277
     33 C          -2.0442    3.7517   26.0743 C.ar    1  UNL1       -0.0220
     34 C          -3.3243    4.0246   26.8070 C.ar    1  UNL1       -0.0020
     35 C          -4.6259    4.0424   26.0617 C.ar    1  UNL1        0.0293
     36 C          -4.6474    3.7874   24.5836 C.ar    1  UNL1        0.1401
     37 F          -5.9490    3.8053   23.8383 F       1  UNL1       -0.2042
     38 C          -3.3673    3.5146   23.8510 C.ar    1  UNL1        0.0293
     39 C          -2.0657    3.4967   24.5963 C.ar    1  UNL1       -0.0020
@<TRIPOS>BOND
     1    22    23    1
     2    23    24    2
     3    23    16    1
     4    16    17   ar
     5    17    18   ar
     6    18    10    1
     7    10    11   am
     8    11    12    2
     9    11    13   am
    10     1    13    1
    11     1     2    1
    12     2     3    1
    13     3     4    1
    14     4     5   am
    15     5     6    1
    16     5     7    2
    17     4     8    1
    18     8     9    1
    19     9    25    1
    20    25    26    1
    21    26    27    1
    22    27    28    1
    23    28    29    1
    24    29    30    1
    25    30    32    1
    26    32    33    1
    27    33    34   ar
    28    34    35   ar
    29    35    36   ar
    30    36    37    1
    31    36    38   ar
    32    38    39   ar
    33    30    31    1
    34    18    19   ar
    35    19    20   ar
    36    20    21    1
    37    20    16   ar
    38     9     1    1
    39    31    26    1
    40    39    33   ar
    41    10    14    1
    42    13    15    1
@<TRIPOS>MOLECULE
*****
 39 42 0 0 0
SMALL
GASTEIGER

@<TRIPOS>ATOM
      1 C           1.9307    2.0341   25.0535 C.3     1  UNL1        0.0777
      2 C           0.4650    1.7163   25.0769 C.3     1  UNL1        0.0412
      3 C          -0.1459    1.0841   26.2922 C.3     1  UNL1        0.0951
      4 N           0.7089    0.7696   27.4840 N.am    1  UNL1       -0.2794
      5 C           0.0979    0.1372   28.6994 C.2     1  UNL1        0.2261
      6 C          -1.3678   -0.1806   28.7228 C.3     1  UNL1        0.0948
      7 O           0.9527   -0.1772   29.8912 O.2     1  UNL1       -0.2749
      8 C           2.1746    1.0874   27.4605 C.3     1  UNL1        0.0964
      9 C           2.7855    1.7197   26.2453 C.3     1  UNL1        0.0539
     10 N           3.5896    2.4425   21.4713 N.am    1  UNL1       -0.2485
     11 C           2.9786    1.8102   22.6866 C.2     1  UNL1        0.3058
     12 O           2.8045    0.3217   22.7504 O.2     1  UNL1       -0.2524
     13 N           2.5417    2.6665   23.8381 N.am    1  UNL1       -0.2901
     14 H           3.7038    3.4194   21.4295 H       1  UNL1        0.1583
     15 H           2.6560    3.6434   23.7963 H       1  UNL1        0.1509
     16 C           5.4154    0.3695   18.7447 C.ar    1  UNL1        0.0803
     17 S           5.4428    1.2461   19.9616 S.2     1  UNL1       -0.0488
     18 C           4.0265    1.5862   20.3198 C.ar    1  UNL1        0.1664
     19 N           3.1238    0.9198   19.3244 N.ar    1  UNL1       -0.2282
     20 C           3.9822    0.1678   18.3509 C.ar    1  UNL1        0.0701
     21 C           3.4931   -0.6435   17.1878 C.3     1  UNL1        0.0528
     22 C           7.4651   -1.2269   18.7345 C.3     1  UNL1        0.0779
     23 C           6.6113   -0.2047   18.0446 C.2     1  UNL1        0.1807
     24 O           6.9534    0.2434   16.6547 O.2     1  UNL1       -0.2908
     25 C           4.2513    2.0375   26.2217 C.3     1  UNL1        0.0754
     26 N           5.1507    1.3561   25.2334 N.3     1  UNL1       -0.2726
     27 C           6.1652    2.1536   24.4685 C.3     1  UNL1        0.0721
     28 C           7.0646    1.4722   23.4802 C.3     1  UNL1        0.0174
     29 C           6.9495   -0.0066   23.2567 C.3     1  UNL1        0.0031
     30 C           5.9351   -0.8040   24.0216 C.3     1  UNL1        0.0204
     31 C           5.0357   -0.1226   25.0099 C.3     1  UNL1        0.0724
     32 C           5.8200   -2.2829   23.7981 C.3     1  UNL1        0.0277
     33 C           5.5813   -2.8163   22.4166 C.ar    1  UNL1       -0.0220
     34 C           6.5854   -3.7328   21.7826 C.ar    1  UNL1       -0.0020
     35 C           6.3467   -4.2662   20.4012 C.ar    1  UNL1        0.0293
     36 C           5.1038   -3.8831   19.6537 C.ar    1  UNL1        0.1401
     37 F           4.8651   -4.4165   18.2722 F       1  UNL1       -0.2042
     38 C           4.0998   -2.9667   20.2877 C.ar    1  UNL1        0.0293
     39 C           4.3385   -2.4333   21.6692 C.ar    1  UNL1       -0.0020
@<TRIPOS>BOND
     1    22    23    1
     2    23    24    2
     3    23    16    1
     4    16    17   ar
     5    17    18   ar
     6    18    10    1
     7    10    11   am
     8    11    12    2
     9    11    13   am
    10     1    13    1
    11     1     2    1
    12     2     3    1
    13     3     4    1
    14     4     5   am
    15     5     6    1
    16     5     7    2
    17     4     8    1
    18     8     9    1
    19     9    25    1
    20    25    26    1
    21    26    27    1
    22    27    28    1
    23    28    29    1
    24    29    30    1
    25    30    32    1
    26    32    33    1
    27    33    34   ar
    28    34    35   ar
    29    35    36   ar
    30    36    37    1
    31    36    38   ar
    32    38    39   ar
    33    30    31    1
    34    18    19   ar
    35    19    20   ar
    36    20    21    1
    37    20    16   ar
    38     9     1    1
    39    31    26    1
    40    39    33   ar
    41    10    14    1
    42    13    15    1
@<TRIPOS>MOLECULE
*****
 39 42 0 0 0
SMALL
GASTEIGER

@<TRIPOS>ATOM
      1 C           2.4593    1.4805   19.3185 C.3     1  UNL1        0.0777
      2 C           2.3258    0.3371   18.3568 C.3     1  UNL1        0.0412
      3 C           3.2478   -0.8415   18.4603 C.3     1  UNL1        0.0951
      4 N           4.3033   -0.8767   19.5256 N.am    1  UNL1       -0.2794
      5 C           5.2253   -2.0554   19.6291 C.2     1  UNL1        0.2261
      6 C           5.0918   -3.1988   18.6673 C.3     1  UNL1        0.0948
      7 O           6.2808   -2.0907   20.6943 O.2     1  UNL1       -0.2749
      8 C           4.4368    0.2666   20.4873 C.3     1  UNL1        0.0964
      9 C           3.5148    1.4452   20.3837 C.3     1  UNL1        0.0539
     10 N          -0.7834    3.7450   19.6456 N.am    1  UNL1       -0.2485
     11 C           0.1386    2.5664   19.7491 C.2     1  UNL1        0.3058
     12 O          -0.3380    1.2950   20.3867 O.2     1  UNL1       -0.2524
     13 N           1.5373    2.6592   19.2150 N.am    1  UNL1       -0.2901
     14 H          -0.4705    4.5795   19.2272 H       1  UNL1        0.1583
     15 H           1.8501    3.4936   18.7965 H       1  UNL1        0.1509
     16 C          -4.6033    3.7188   20.3335 C.ar    1  UNL1        0.0803
     17 S          -3.4393    3.9362   19.4126 S.2     1  UNL1       -0.0488
     18 C          -2.1820    3.6523   20.1797 C.ar    1  UNL1        0.1664
     19 N          -2.5689    3.2594   21.5747 N.ar    1  UNL1       -0.2282
     20 C          -4.0653    3.3005   21.6697 C.ar    1  UNL1        0.0701
     21 C          -4.8805    2.9795   22.8872 C.3     1  UNL1        0.0528
     22 C          -6.6160    3.1964   18.7759 C.3     1  UNL1        0.0779
     23 C          -6.0510    3.8897   19.9801 C.2     1  UNL1        0.1807
     24 O          -6.9337    4.7538   20.8309 O.2     1  UNL1       -0.2908
     25 C           3.6482    2.5886   21.3455 C.3     1  UNL1        0.0754
     26 N           2.5102    2.9375   22.2583 N.3     1  UNL1       -0.2726
     27 C           1.9825    4.3412   22.2964 C.3     1  UNL1        0.0721
     28 C           0.8446    4.6901   23.2092 C.3     1  UNL1        0.0174
     29 C           0.2343    3.6353   24.0840 C.3     1  UNL1        0.0031
     30 C           0.7620    2.2318   24.0459 C.3     1  UNL1        0.0204
     31 C           1.8999    1.8829   23.1330 C.3     1  UNL1        0.0724
     32 C           0.1517    1.1770   24.9206 C.3     1  UNL1        0.0277
     33 C           0.4514    1.1558   26.3902 C.ar    1  UNL1       -0.0220
     34 C           1.8728    1.0908   26.8649 C.ar    1  UNL1       -0.0020
     35 C           2.1725    1.0696   28.3345 C.ar    1  UNL1        0.0293
     36 C           1.0507    1.1135   29.3295 C.ar    1  UNL1        0.1401
     37 F           1.3504    1.0923   30.7991 F       1  UNL1       -0.2042
     38 C          -0.3707    1.1785   28.8547 C.ar    1  UNL1        0.0293
     39 C          -0.6703    1.1997   27.3851 C.ar    1  UNL1       -0.0020
@<TRIPOS>BOND
     1    22    23    1
     2    23    24    2
     3    23    16    1
     4    16    17   ar
     5    17    18   ar
     6    18    10    1
     7    10    11   am
     8    11    12    2
     9    11    13   am
    10     1    13    1
    11     1     2    1
    12     2     3    1
    13     3     4    1
    14     4     5   am
    15     5     6    1
    16     5     7    2
    17     4     8    1
    18     8     9    1
    19     9    25    1
    20    25    26    1
    21    26    27    1
    22    27    28    1
    23    28    29    1
    24    29    30    1
    25    30    32    1
    26    32    33    1
    27    33    34   ar
    28    34    35   ar
    29    35    36   ar
    30    36    37    1
    31    36    38   ar
    32    38    39   ar
    33    30    31    1
    34    18    19   ar
    35    19    20   ar
    36    20    21    1
    37    20    16   ar
    38     9     1    1
    39    31    26    1
    40    39    33   ar
    41    10    14    1
    42    13    15    1
@<TRIPOS>MOLECULE
*****
 39 42 0 0 0
SMALL
GASTEIGER

@<TRIPOS>ATOM
      1 C           2.4746    1.3071   19.4094 C.3     1  UNL1        0.0777
      2 C           2.4493    0.2991   18.2989 C.3     1  UNL1        0.0412
      3 C           3.3287   -0.9141   18.3671 C.3     1  UNL1        0.0951
      4 N           4.2334   -1.1194   19.5458 N.am    1  UNL1       -0.2794
      5 C           5.1129   -2.3327   19.6139 C.2     1  UNL1        0.2261
      6 C           5.0876   -3.3406   18.5034 C.3     1  UNL1        0.0948
      7 O           6.0175   -2.5379   20.7927 O.2     1  UNL1       -0.2749
      8 C           4.2587   -0.1114   20.6564 C.3     1  UNL1        0.0964
      9 C           3.3793    1.1018   20.5882 C.3     1  UNL1        0.0539
     10 N          -0.6983    3.6637   19.7689 N.am    1  UNL1       -0.2485
     11 C           0.1811    2.4505   19.8371 C.2     1  UNL1        0.3058
     12 O          -0.3534    1.1674   20.4010 O.2     1  UNL1       -0.2524
     13 N           1.5951    2.5203   19.3413 N.am    1  UNL1       -0.2901
     14 H          -0.3475    4.5058   19.3988 H       1  UNL1        0.1583
     15 H           1.9460    3.3625   18.9712 H       1  UNL1        0.1509
     16 C          -4.5360    3.6891   20.3494 C.ar    1  UNL1        0.0803
     17 S          -3.3444    3.8808   19.4588 S.2     1  UNL1       -0.0488
     18 C          -2.1123    3.5938   20.2647 C.ar    1  UNL1        0.1664
     19 N          -2.5424    3.2248   21.6535 N.ar    1  UNL1       -0.2282
     20 C          -4.0404    3.2837   21.7059 C.ar    1  UNL1        0.0701
     21 C          -4.8930    2.9889   22.9043 C.3     1  UNL1        0.0528
     22 C          -6.5131    3.1580   18.7498 C.3     1  UNL1        0.0779
     23 C          -5.9713    3.8709   19.9532 C.2     1  UNL1        0.1807
     24 O          -6.8646    4.7654   20.7603 O.2     1  UNL1       -0.2908
     25 C           3.4045    2.1098   21.6988 C.3     1  UNL1        0.0754
     26 N           3.0755    1.6896   23.1006 N.3     1  UNL1       -0.2726
     27 C           4.1720    1.2725   24.0354 C.3     1  UNL1        0.0721
     28 C           3.8431    0.8523   25.4373 C.3     1  UNL1        0.0174
     29 C           2.4176    0.8491   25.9043 C.3     1  UNL1        0.0031
     30 C           1.3212    1.2662   24.9695 C.3     1  UNL1        0.0204
     31 C           1.6501    1.6864   23.5677 C.3     1  UNL1        0.0724
     32 C          -0.1043    1.2630   25.4366 C.3     1  UNL1        0.0277
     33 C          -0.7356    2.5321   25.9273 C.ar    1  UNL1       -0.0220
     34 C          -0.0806    3.3210   27.0222 C.ar    1  UNL1       -0.0020
     35 C          -0.7118    4.5902   27.5129 C.ar    1  UNL1        0.0293
     36 C          -1.9981    5.0704   26.9087 C.ar    1  UNL1        0.1401
     37 F          -2.6294    6.3395   27.3994 F       1  UNL1       -0.2042
     38 C          -2.6531    4.2815   25.8139 C.ar    1  UNL1        0.0293
     39 C          -2.0218    3.0124   25.3232 C.ar    1  UNL1       -0.0020
@<TRIPOS>BOND
     1    22    23    1
     2    23    24    2
     3    23    16    1
     4    16    17   ar
     5    17    18   ar
     6    18    10    1
     7    10    11   am
     8    11    12    2
     9    11    13   am
    10     1    13    1
    11     1     2    1
    12     2     3    1
    13     3     4    1
    14     4     5   am
    15     5     6    1
    16     5     7    2
    17     4     8    1
    18     8     9    1
    19     9    25    1
    20    25    26    1
    21    26    27    1
    22    27    28    1
    23    28    29    1
    24    29    30    1
    25    30    32    1
    26    32    33    1
    27    33    34   ar
    28    34    35   ar
    29    35    36   ar
    30    36    37    1
    31    36    38   ar
    32    38    39   ar
    33    30    31    1
    34    18    19   ar
    35    19    20   ar
    36    20    21    1
    37    20    16   ar
    38     9     1    1
    39    31    26    1
    40    39    33   ar
    41    10    14    1
    42    13    15    1
@<TRIPOS>MOLECULE
*****
 39 42 0 0 0
SMALL
GASTEIGER

@<TRIPOS>ATOM
      1 C           7.1295   -3.2864   25.7742 C.3     1  UNL1        0.0777
      2 C           7.6807   -2.5941   24.5630 C.3     1  UNL1        0.0412
      3 C           8.1901   -3.4002   23.4052 C.3     1  UNL1        0.0951
      4 N           8.1483   -4.8987   23.4585 N.am    1  UNL1       -0.2794
      5 C           8.6577   -5.7049   22.3006 C.2     1  UNL1        0.2261
      6 C           9.2088   -5.0126   21.0895 C.3     1  UNL1        0.0948
      7 O           8.6158   -7.2033   22.3539 O.2     1  UNL1       -0.2749
      8 C           7.5971   -5.5910   24.6697 C.3     1  UNL1        0.0964
      9 C           7.0877   -4.7848   25.8275 C.3     1  UNL1        0.0539
     10 N           4.7531   -1.0398   28.0226 N.am    1  UNL1       -0.2485
     11 C           5.2625   -1.8460   26.8648 C.2     1  UNL1        0.3058
     12 O           4.4142   -2.0179   25.6397 O.2     1  UNL1       -0.2524
     13 N           6.6201   -2.4802   26.9321 N.am    1  UNL1       -0.2901
     14 H           5.3098   -0.9270   28.8267 H       1  UNL1        0.1583
     15 H           7.1769   -2.3673   27.7362 H       1  UNL1        0.1509
     16 C           1.1321    0.2681   28.5159 C.ar    1  UNL1        0.0803
     17 S           2.3157   -0.5218   28.9902 S.2     1  UNL1       -0.0488
     18 C           3.3954   -0.4056   27.9554 C.ar    1  UNL1        0.1664
     19 N           2.8790    0.4561   26.8415 N.ar    1  UNL1       -0.2282
     20 C           1.4802    0.8725   27.1879 C.ar    1  UNL1        0.0701
     21 C           0.5864    1.7409   26.3529 C.3     1  UNL1        0.0528
     22 C          -1.3957   -0.2855   28.7482 C.3     1  UNL1        0.0779
     23 C          -0.1709    0.4259   29.2420 C.2     1  UNL1        0.1807
     24 O          -0.2491    1.2951   30.4620 O.2     1  UNL1       -0.2908
     25 C           6.5365   -5.4771   27.0387 C.3     1  UNL1        0.0754
     26 N           7.4128   -5.7091   28.2338 N.3     1  UNL1       -0.2726
     27 C           8.3445   -6.8843   28.2638 C.3     1  UNL1        0.0721
     28 C           9.2209   -7.1163   29.4588 C.3     1  UNL1        0.0174
     29 C           9.1656   -6.1731   30.6239 C.3     1  UNL1        0.0031
     30 C           8.2339   -4.9979   30.5938 C.3     1  UNL1        0.0204
     31 C           7.3575   -4.7659   29.3988 C.3     1  UNL1        0.0724
     32 C           8.1785   -4.0546   31.7589 C.3     1  UNL1        0.0277
     33 C           7.0769   -3.0408   31.8514 C.ar    1  UNL1       -0.0220
     34 C           7.2614   -1.6764   31.2560 C.ar    1  UNL1       -0.0020
     35 C           6.1598   -0.6626   31.3485 C.ar    1  UNL1        0.0293
     36 C           4.8736   -1.0132   32.0363 C.ar    1  UNL1        0.1401
     37 F           3.7720    0.0007   32.1288 F       1  UNL1       -0.2042
     38 C           4.6892   -2.3775   32.6316 C.ar    1  UNL1        0.0293
     39 C           5.7908   -3.3914   32.5391 C.ar    1  UNL1       -0.0020
@<TRIPOS>BOND
     1    22    23    1
     2    23    24    2
     3    23    16    1
     4    16    17   ar
     5    17    18   ar
     6    18    10    1
     7    10    11   am
     8    11    12    2
     9    11    13   am
    10     1    13    1
    11     1     2    1
    12     2     3    1
    13     3     4    1
    14     4     5   am
    15     5     6    1
    16     5     7    2
    17     4     8    1
    18     8     9    1
    19     9    25    1
    20    25    26    1
    21    26    27    1
    22    27    28    1
    23    28    29    1
    24    29    30    1
    25    30    32    1
    26    32    33    1
    27    33    34   ar
    28    34    35   ar
    29    35    36   ar
    30    36    37    1
    31    36    38   ar
    32    38    39   ar
    33    30    31    1
    34    18    19   ar
    35    19    20   ar
    36    20    21    1
    37    20    16   ar
    38     9     1    1
    39    31    26    1
    40    39    33   ar
    41    10    14    1
    42    13    15    1
@<TRIPOS>MOLECULE
*****
 39 42 0 0 0
SMALL
GASTEIGER

@<TRIPOS>ATOM
      1 C           4.2461   -1.3130   25.9465 C.3     1  UNL1        0.0777
      2 C           3.5147   -1.1583   24.6461 C.3     1  UNL1        0.0412
      3 C           4.2752   -0.8533   23.3897 C.3     1  UNL1        0.0951
      4 N           5.7669   -0.7029   23.4337 N.am    1  UNL1       -0.2794
      5 C           6.5274   -0.3978   22.1772 C.2     1  UNL1        0.2261
      6 C           5.7960   -0.2432   20.8768 C.3     1  UNL1        0.0948
      7 O           8.0192   -0.2474   22.2212 O.2     1  UNL1       -0.2749
      8 C           6.4983   -0.8575   24.7341 C.3     1  UNL1        0.0964
      9 C           5.7379   -1.1626   25.9906 C.3     1  UNL1        0.0539
     10 N           2.4348   -0.8297   29.4445 N.am    1  UNL1       -0.2485
     11 C           3.1952   -0.5247   28.1881 C.2     1  UNL1        0.3058
     12 O           3.6653    0.8737   27.9166 O.2     1  UNL1       -0.2524
     13 N           3.4856   -1.6180   27.2031 N.am    1  UNL1       -0.2901
     14 H           2.1263   -1.7475   29.6227 H       1  UNL1        0.1583
     15 H           3.1771   -2.5358   27.3812 H       1  UNL1        0.1509
     16 C           2.3106    1.7583   32.3346 C.ar    1  UNL1        0.0803
     17 S           2.9656    0.6024   31.6383 S.2     1  UNL1       -0.0488
     18 C           2.1445    0.2636   30.4296 C.ar    1  UNL1        0.1664
     19 N           0.9819    1.2101   30.3789 N.ar    1  UNL1       -0.2282
     20 C           1.0846    2.1339   31.5563 C.ar    1  UNL1        0.0701
     21 C           0.1290    3.2392   31.8957 C.3     1  UNL1        0.0528
     22 C           4.0014    3.3142   33.5471 C.3     1  UNL1        0.0779
     23 C           2.7963    2.4220   33.5890 C.2     1  UNL1        0.1807
     24 O           2.0770    2.1936   34.8852 O.2     1  UNL1       -0.2908
     25 C           6.4692   -1.3172   27.2911 C.3     1  UNL1        0.0754
     26 N           6.5249   -2.6559   27.9656 N.3     1  UNL1       -0.2726
     27 C           6.4726   -3.9113   27.1462 C.3     1  UNL1        0.0721
     28 C           6.5283   -5.2499   27.8207 C.3     1  UNL1        0.0174
     29 C           6.6364   -5.3331   29.3146 C.3     1  UNL1        0.0031
     30 C           6.6888   -4.0778   30.1338 C.3     1  UNL1        0.0204
     31 C           6.6331   -2.7391   29.4593 C.3     1  UNL1        0.0724
     32 C           6.7970   -4.1610   31.6277 C.3     1  UNL1        0.0277
     33 C           6.3648   -3.0023   32.4766 C.ar    1  UNL1       -0.0220
     34 C           7.3307   -1.8967   32.7845 C.ar    1  UNL1       -0.0020
     35 C           6.8985   -0.7380   33.6334 C.ar    1  UNL1        0.0293
     36 C           5.5004   -0.6849   34.1744 C.ar    1  UNL1        0.1401
     37 F           5.0682    0.4737   35.0234 F       1  UNL1       -0.2042
     38 C           4.5346   -1.7905   33.8665 C.ar    1  UNL1        0.0293
     39 C           4.9668   -2.9492   33.0176 C.ar    1  UNL1       -0.0020
@<TRIPOS>BOND
     1    22    23    1
     2    23    24    2
     3    23    16    1
     4    16    17   ar
     5    17    18   ar
     6    18    10    1
     7    10    11   am
     8    11    12    2
     9    11    13   am
    10     1    13    1
    11     1     2    1
    12     2     3    1
    13     3     4    1
    14     4     5   am
    15     5     6    1
    16     5     7    2
    17     4     8    1
    18     8     9    1
    19     9    25    1
    20    25    26    1
    21    26    27    1
    22    27    28    1
    23    28    29    1
    24    29    30    1
    25    30    32    1
    26    32    33    1
    27    33    34   ar
    28    34    35   ar
    29    35    36   ar
    30    36    37    1
    31    36    38   ar
    32    38    39   ar
    33    30    31    1
    34    18    19   ar
    35    19    20   ar
    36    20    21    1
    37    20    16   ar
    38     9     1    1
    39    31    26    1
    40    39    33   ar
    41    10    14    1
    42    13    15    1
@<TRIPOS>MOLECULE
*****
 39 42 0 0 0
SMALL
GASTEIGER

@<TRIPOS>ATOM
      1 C           2.5245    1.7178   25.6475 C.3     1  UNL1        0.0777
      2 C           3.4886    1.8475   26.7893 C.3     1  UNL1        0.0412
      3 C           3.0117    1.6579   28.1987 C.3     1  UNL1        0.0951
      4 N           1.5708    1.3384   28.4664 N.am    1  UNL1       -0.2794
      5 C           1.0939    1.1488   29.8759 C.2     1  UNL1        0.2261
      6 C           2.0580    1.2786   31.0177 C.3     1  UNL1        0.0948
      7 O          -0.3470    0.8293   30.1436 O.2     1  UNL1       -0.2749
      8 C           0.6067    1.2086   27.3246 C.3     1  UNL1        0.0964
      9 C           1.0836    1.3983   25.9152 C.3     1  UNL1        0.0539
     10 N           3.9035    0.9109   22.0147 N.am    1  UNL1       -0.2485
     11 C           3.4267    0.7213   23.4241 C.2     1  UNL1        0.3058
     12 O           3.3751   -0.6544   24.0198 O.2     1  UNL1       -0.2524
     13 N           3.0014    1.9074   24.2380 N.am    1  UNL1       -0.2901
     14 H           3.9373    1.8139   21.6237 H       1  UNL1        0.1583
     15 H           3.0352    2.8103   23.8470 H       1  UNL1        0.1509
     16 C           5.6653   -1.7993   19.8661 C.ar    1  UNL1        0.0803
     17 S           5.6823   -0.4852   20.5892 S.2     1  UNL1       -0.0488
     18 C           4.3288   -0.2751   21.2008 C.ar    1  UNL1        0.1664
     19 N           3.4754   -1.4594   20.8556 N.ar    1  UNL1       -0.2282
     20 C           4.3014   -2.4014   20.0308 C.ar    1  UNL1        0.0701
     21 C           3.8437   -3.7148   19.4691 C.3     1  UNL1        0.0528
     22 C           7.9003   -3.1238   19.8504 C.3     1  UNL1        0.0779
     23 C           6.8111   -2.4049   19.1109 C.2     1  UNL1        0.1807
     24 O           6.8678   -2.2917   17.6164 O.2     1  UNL1       -0.2908
     25 C           0.1195    1.2685   24.7733 C.3     1  UNL1        0.0754
     26 N           0.0480    2.3405   23.7265 N.3     1  UNL1       -0.2726
     27 C          -0.0544    3.7806   24.1336 C.3     1  UNL1        0.0721
     28 C          -0.1258    4.8527   23.0869 C.3     1  UNL1        0.0174
     29 C          -0.0948    4.4845   21.6330 C.3     1  UNL1        0.0031
     30 C           0.0076    3.0445   21.2260 C.3     1  UNL1        0.0204
     31 C           0.0790    1.9725   22.2728 C.3     1  UNL1        0.0724
     32 C           0.0386    2.6764   19.7722 C.3     1  UNL1        0.0277
     33 C           1.3014    2.1477   19.1591 C.ar    1  UNL1       -0.0220
     34 C           1.3227    0.7770   18.5501 C.ar    1  UNL1       -0.0020
     35 C           2.5855    0.2482   17.9371 C.ar    1  UNL1        0.0293
     36 C           3.8270    1.0902   17.9331 C.ar    1  UNL1        0.1401
     37 F           5.0898    0.5615   17.3201 F       1  UNL1       -0.2042
     38 C           3.8056    2.4608   18.5421 C.ar    1  UNL1        0.0293
     39 C           2.5428    2.9896   19.1551 C.ar    1  UNL1       -0.0020
@<TRIPOS>BOND
     1    22    23    1
     2    23    24    2
     3    23    16    1
     4    16    17   ar
     5    17    18   ar
     6    18    10    1
     7    10    11   am
     8    11    12    2
     9    11    13   am
    10     1    13    1
    11     1     2    1
    12     2     3    1
    13     3     4    1
    14     4     5   am
    15     5     6    1
    16     5     7    2
    17     4     8    1
    18     8     9    1
    19     9    25    1
    20    25    26    1
    21    26    27    1
    22    27    28    1
    23    28    29    1
    24    29    30    1
    25    30    32    1
    26    32    33    1
    27    33    34   ar
    28    34    35   ar
    29    35    36   ar
    30    36    37    1
    31    36    38   ar
    32    38    39   ar
    33    30    31    1
    34    18    19   ar
    35    19    20   ar
    36    20    21    1
    37    20    16   ar
    38     9     1    1
    39    31    26    1
    40    39    33   ar
    41    10    14    1
    42    13    15    1
