@<TRIPOS>MOLECULE
*****
 18 19 0 0 0
SMALL
GASTEIGER

@<TRIPOS>ATOM
      1 C          -7.1844  -16.7299   23.5321 C.ar    1  UNL1        0.0608
      2 C          -5.8700  -16.0746   23.8366 C.ar    1  UNL1        0.1071
      3 N          -5.7531  -15.1315   24.9972 N.ar    1  UNL1       -0.2417
      4 C          -6.9506  -14.8438   25.8533 C.ar    1  UNL1        0.0989
      5 C          -8.2651  -15.4992   25.5489 C.ar    1  UNL1        0.0213
      6 C          -8.3819  -16.4423   24.3883 C.ar    1  UNL1        0.0108
      7 C          -9.6965  -17.0976   24.0839 C.ar    1  UNL1        0.0038
      8 C         -10.0706  -18.3804   24.7655 C.ar    1  UNL1        0.0207
      9 C         -11.3850  -19.0357   24.4611 C.ar    1  UNL1        0.0989
     10 N         -12.3254  -18.4084   23.4751 N.ar    1  UNL1       -0.2423
     11 C         -11.9513  -17.1257   22.7934 C.ar    1  UNL1        0.0989
     12 C         -10.6367  -16.4703   23.0979 C.ar    1  UNL1        0.0207
     13 C          -7.4181  -18.6160   21.2109 C.1     1  UNL1       -0.0689
     14 C          -7.3013  -17.6730   22.3715 C.1     1  UNL1       -0.0614
     15 N          -8.5549  -19.3078   18.9795 N.3     1  UNL1       -0.3102
     16 C          -7.5350  -19.5591   20.0503 C.3     1  UNL1        0.1432
     17 H          -8.4951  -20.0420   18.2740 H       1  UNL1        0.1198
     18 H          -8.3753  -18.4028   18.5445 H       1  UNL1        0.1198
@<TRIPOS>BOND
     1    15    16    1
     2    16    13    1
     3    13    14    3
     4    14     1    1
     5     1     2   ar
     6     2     3   ar
     7     3     4   ar
     8     4     5   ar
     9     5     6   ar
    10     6     7    1
    11     7     8   ar
    12     8     9   ar
    13     9    10   ar
    14    10    11   ar
    15    11    12   ar
    16     6     1   ar
    17    12     7   ar
    18    15    17    1
    19    15    18    1
@<TRIPOS>MOLECULE
*****
 18 19 0 0 0
SMALL
GASTEIGER

@<TRIPOS>ATOM
      1 C          -8.3026  -18.4259   21.2661 C.ar    1  UNL1        0.0608
      2 C          -7.1701  -19.0067   20.4724 C.ar    1  UNL1        0.1071
      3 N          -7.4555  -19.8908   19.2947 N.ar    1  UNL1       -0.2417
      4 C          -8.8734  -20.1940   18.9107 C.ar    1  UNL1        0.0989
      5 C         -10.0059  -19.6132   19.7044 C.ar    1  UNL1        0.0213
      6 C          -9.7205  -18.7291   20.8821 C.ar    1  UNL1        0.0108
      7 C         -10.8531  -18.1483   21.6758 C.ar    1  UNL1        0.0038
      8 C         -11.4123  -18.9014   22.8464 C.ar    1  UNL1        0.0207
      9 C         -12.5448  -18.3207   23.6401 C.ar    1  UNL1        0.0989
     10 N         -13.1183  -16.9868   23.2633 N.ar    1  UNL1       -0.2423
     11 C         -12.5591  -16.2337   22.0927 C.ar    1  UNL1        0.0989
     12 C         -11.4265  -16.8145   21.2990 C.ar    1  UNL1        0.0207
     13 C          -7.7318  -16.6579   23.6215 C.1     1  UNL1       -0.0689
     14 C          -8.0172  -17.5419   22.4438 C.1     1  UNL1       -0.0614
     15 N          -6.9682  -14.3685   24.5838 N.3     1  UNL1       -0.3102
     16 C          -7.4463  -15.7738   24.7993 C.3     1  UNL1        0.1432
     17 H          -6.8256  -13.9157   25.4865 H       1  UNL1        0.1198
     18 H          -7.6659  -13.8502   24.0499 H       1  UNL1        0.1198
@<TRIPOS>BOND
     1    15    16    1
     2    16    13    1
     3    13    14    3
     4    14     1    1
     5     1     2   ar
     6     2     3   ar
     7     3     4   ar
     8     4     5   ar
     9     5     6   ar
    10     6     7    1
    11     7     8   ar
    12     8     9   ar
    13     9    10   ar
    14    10    11   ar
    15    11    12   ar
    16     6     1   ar
    17    12     7   ar
    18    15    17    1
    19    15    18    1
@<TRIPOS>MOLECULE
*****
 18 19 0 0 0
SMALL
GASTEIGER

@<TRIPOS>ATOM
      1 C          -9.5942  -17.8897   21.4483 C.ar    1  UNL1        0.0608
      2 C         -10.5409  -18.3296   20.3712 C.ar    1  UNL1        0.1071
      3 N         -11.8700  -17.6513   20.2179 N.ar    1  UNL1       -0.2417
      4 C         -12.2524  -16.5332   21.1417 C.ar    1  UNL1        0.0989
      5 C         -11.3058  -16.0933   22.2188 C.ar    1  UNL1        0.0213
      6 C          -9.9767  -16.7715   22.3722 C.ar    1  UNL1        0.0108
      7 C          -9.0300  -16.3316   23.4494 C.ar    1  UNL1        0.0038
      8 C          -9.2782  -16.7293   24.8743 C.ar    1  UNL1        0.0207
      9 C          -8.3316  -16.2894   25.9515 C.ar    1  UNL1        0.0989
     10 N          -7.1368  -15.4517   25.6038 N.ar    1  UNL1       -0.2423
     11 C          -6.8886  -15.0540   24.1790 C.ar    1  UNL1        0.0989
     12 C          -7.8353  -15.4940   23.1017 C.ar    1  UNL1        0.0207
     13 C          -6.9360  -19.2461   21.7550 C.1     1  UNL1       -0.0689
     14 C          -8.2651  -18.5679   21.6017 C.1     1  UNL1       -0.0614
     15 N          -4.5342  -19.2918   22.7444 N.3     1  UNL1       -0.3102
     16 C          -5.6069  -19.9243   21.9084 C.3     1  UNL1        0.1432
     17 H          -3.7042  -19.8846   22.7380 H       1  UNL1        0.1198
     18 H          -4.8682  -19.1849   23.7022 H       1  UNL1        0.1198
@<TRIPOS>BOND
     1    15    16    1
     2    16    13    1
     3    13    14    3
     4    14     1    1
     5     1     2   ar
     6     2     3   ar
     7     3     4   ar
     8     4     5   ar
     9     5     6   ar
    10     6     7    1
    11     7     8   ar
    12     8     9   ar
    13     9    10   ar
    14    10    11   ar
    15    11    12   ar
    16     6     1   ar
    17    12     7   ar
    18    15    17    1
    19    15    18    1
@<TRIPOS>MOLECULE
*****
 18 19 0 0 0
SMALL
GASTEIGER

@<TRIPOS>ATOM
      1 C          -4.6312  -18.6143   22.1009 C.ar    1  UNL1        0.0608
      2 C          -3.2234  -18.8917   21.6640 C.ar    1  UNL1        0.1071
      3 N          -2.9496  -19.9661   20.6536 N.ar    1  UNL1       -0.2417
      4 C          -4.0836  -20.7629   20.0802 C.ar    1  UNL1        0.0989
      5 C          -5.4915  -20.4855   20.5171 C.ar    1  UNL1        0.0213
      6 C          -5.7652  -19.4111   21.5274 C.ar    1  UNL1        0.0108
      7 C          -7.1732  -19.1336   21.9644 C.ar    1  UNL1        0.0038
      8 C          -7.9217  -20.1511   22.7734 C.ar    1  UNL1        0.0207
      9 C          -9.3295  -19.8737   23.2103 C.ar    1  UNL1        0.0989
     10 N          -9.9890  -18.5788   22.8382 N.ar    1  UNL1       -0.2423
     11 C          -9.2405  -17.5613   22.0291 C.ar    1  UNL1        0.0989
     12 C          -7.8326  -17.8388   21.5922 C.ar    1  UNL1        0.0207
     13 C          -5.1788  -16.4656   24.1216 C.1     1  UNL1       -0.0689
     14 C          -4.9050  -17.5399   23.1112 C.1     1  UNL1       -0.0614
     15 N          -6.5960  -14.4424   24.9267 N.3     1  UNL1       -0.3102
     16 C          -5.4525  -15.3912   25.1320 C.3     1  UNL1        0.1432
     17 H          -6.6346  -13.7832   25.7041 H       1  UNL1        0.1198
     18 H          -7.4695  -14.9672   24.8822 H       1  UNL1        0.1198
@<TRIPOS>BOND
     1    15    16    1
     2    16    13    1
     3    13    14    3
     4    14     1    1
     5     1     2   ar
     6     2     3   ar
     7     3     4   ar
     8     4     5   ar
     9     5     6   ar
    10     6     7    1
    11     7     8   ar
    12     8     9   ar
    13     9    10   ar
    14    10    11   ar
    15    11    12   ar
    16     6     1   ar
    17    12     7   ar
    18    15    17    1
    19    15    18    1
@<TRIPOS>MOLECULE
*****
 18 19 0 0 0
SMALL
GASTEIGER

@<TRIPOS>ATOM
      1 C         -12.9846   -4.1987   18.9637 C.ar    1  UNL1        0.0608
      2 C         -13.5277   -2.8299   19.2486 C.ar    1  UNL1        0.1071
      3 N         -12.6418   -1.6275   19.1093 N.ar    1  UNL1       -0.2417
      4 C         -11.2127   -1.7939   18.6852 C.ar    1  UNL1        0.0989
      5 C         -10.6696   -3.1627   18.4003 C.ar    1  UNL1        0.0213
      6 C         -11.5555   -4.3651   18.5396 C.ar    1  UNL1        0.0108
      7 C         -11.0122   -5.7340   18.2547 C.ar    1  UNL1        0.0038
      8 C          -9.9202   -6.3010   19.1125 C.ar    1  UNL1        0.0207
      9 C          -9.3769   -7.6698   18.8277 C.ar    1  UNL1        0.0989
     10 N          -9.9257   -8.4717   17.6849 N.ar    1  UNL1       -0.2423
     11 C         -11.0177   -7.9047   16.8270 C.ar    1  UNL1        0.0989
     12 C         -11.5610   -6.5358   17.1119 C.ar    1  UNL1        0.0207
     13 C         -14.7564   -6.6035   19.2422 C.1     1  UNL1       -0.0689
     14 C         -13.8705   -5.4011   19.1029 C.1     1  UNL1       -0.0614
     15 N         -15.0513   -9.1834   19.3257 N.3     1  UNL1       -0.3102
     16 C         -15.6423   -7.8059   19.3814 C.3     1  UNL1        0.1432
     17 H         -15.7919   -9.8759   19.4368 H       1  UNL1        0.1198
     18 H         -14.3694   -9.2915   20.0766 H       1  UNL1        0.1198
@<TRIPOS>BOND
     1    15    16    1
     2    16    13    1
     3    13    14    3
     4    14     1    1
     5     1     2   ar
     6     2     3   ar
     7     3     4   ar
     8     4     5   ar
     9     5     6   ar
    10     6     7    1
    11     7     8   ar
    12     8     9   ar
    13     9    10   ar
    14    10    11   ar
    15    11    12   ar
    16     6     1   ar
    17    12     7   ar
    18    15    17    1
    19    15    18    1
@<TRIPOS>MOLECULE
*****
 18 19 0 0 0
SMALL
GASTEIGER

@<TRIPOS>ATOM
      1 C          -7.9167  -17.8686   21.8031 C.ar    1  UNL1        0.0608
      2 C          -9.3994  -17.6468   21.7556 C.ar    1  UNL1        0.1071
      3 N         -10.2446  -18.4303   20.7955 N.ar    1  UNL1       -0.2417
      4 C          -9.6071  -19.4356   19.8829 C.ar    1  UNL1        0.0989
      5 C          -8.1244  -19.6575   19.9304 C.ar    1  UNL1        0.0213
      6 C          -7.2792  -18.8740   20.8905 C.ar    1  UNL1        0.0108
      7 C          -5.7964  -19.0959   20.9379 C.ar    1  UNL1        0.0038
      8 C          -4.9736  -18.9336   19.6942 C.ar    1  UNL1        0.0207
      9 C          -3.4909  -19.1555   19.7416 C.ar    1  UNL1        0.0989
     10 N          -2.8309  -19.5396   21.0328 N.ar    1  UNL1       -0.2423
     11 C          -3.6537  -19.7018   22.2764 C.ar    1  UNL1        0.0989
     12 C          -5.1365  -19.4799   22.2290 C.ar    1  UNL1        0.0207
     13 C          -6.2262  -16.3017   23.7232 C.1     1  UNL1       -0.0689
     14 C          -7.0715  -17.0852   22.7631 C.1     1  UNL1       -0.0614
     15 N          -6.0295  -14.6030   25.6792 N.3     1  UNL1       -0.3102
     16 C          -5.3810  -15.5182   24.6833 C.3     1  UNL1        0.1432
     17 H          -5.3108  -14.1543   26.2470 H       1  UNL1        0.1198
     18 H          -6.6515  -15.1421   26.2817 H       1  UNL1        0.1198
@<TRIPOS>BOND
     1    15    16    1
     2    16    13    1
     3    13    14    3
     4    14     1    1
     5     1     2   ar
     6     2     3   ar
     7     3     4   ar
     8     4     5   ar
     9     5     6   ar
    10     6     7    1
    11     7     8   ar
    12     8     9   ar
    13     9    10   ar
    14    10    11   ar
    15    11    12   ar
    16     6     1   ar
    17    12     7   ar
    18    15    17    1
    19    15    18    1
@<TRIPOS>MOLECULE
*****
 18 19 0 0 0
SMALL
GASTEIGER

@<TRIPOS>ATOM
      1 C          -6.8003  -17.1775   23.1092 C.ar    1  UNL1        0.0608
      2 C          -5.8063  -16.2320   23.7157 C.ar    1  UNL1        0.1071
      3 N          -6.2771  -15.1095   24.5923 N.ar    1  UNL1       -0.2417
      4 C          -7.7419  -14.9326   24.8623 C.ar    1  UNL1        0.0989
      5 C          -8.7359  -15.8780   24.2558 C.ar    1  UNL1        0.0213
      6 C          -8.2651  -17.0005   23.3792 C.ar    1  UNL1        0.0108
      7 C          -9.2592  -17.9460   22.7727 C.ar    1  UNL1        0.0038
      8 C          -9.6533  -19.1929   23.5075 C.ar    1  UNL1        0.0207
      9 C         -10.6474  -20.1384   22.9011 C.ar    1  UNL1        0.0989
     10 N         -11.2474  -19.8371   21.5597 N.ar    1  UNL1       -0.2423
     11 C         -10.8533  -18.5902   20.8248 C.ar    1  UNL1        0.0989
     12 C          -9.8592  -17.6447   21.4314 C.ar    1  UNL1        0.0207
     13 C          -5.8588  -19.4225   21.3560 C.1     1  UNL1       -0.0689
     14 C          -6.3295  -18.3000   22.2326 C.1     1  UNL1       -0.0614
     15 N          -3.9743  -20.5630   19.9784 N.3     1  UNL1       -0.3102
     16 C          -5.3880  -20.5449   20.4794 C.3     1  UNL1        0.1432
     17 H          -3.8286  -21.3914   19.4013 H       1  UNL1        0.1198
     18 H          -3.3328  -20.5838   20.7712 H       1  UNL1        0.1198
@<TRIPOS>BOND
     1    15    16    1
     2    16    13    1
     3    13    14    3
     4    14     1    1
     5     1     2   ar
     6     2     3   ar
     7     3     4   ar
     8     4     5   ar
     9     5     6   ar
    10     6     7    1
    11     7     8   ar
    12     8     9   ar
    13     9    10   ar
    14    10    11   ar
    15    11    12   ar
    16     6     1   ar
    17    12     7   ar
    18    15    17    1
    19    15    18    1
@<TRIPOS>MOLECULE
*****
 18 19 0 0 0
SMALL
GASTEIGER

@<TRIPOS>ATOM
      1 C          -8.6389  -18.9418   20.5350 C.ar    1  UNL1        0.0608
      2 C          -8.2644  -19.8333   19.3883 C.ar    1  UNL1        0.1071
      3 N          -7.0511  -20.7100   19.4849 N.ar    1  UNL1       -0.2417
      4 C          -6.2123  -20.6952   20.7283 C.ar    1  UNL1        0.0989
      5 C          -6.5867  -19.8037   21.8750 C.ar    1  UNL1        0.0213
      6 C          -7.8000  -18.9271   21.7784 C.ar    1  UNL1        0.0108
      7 C          -8.1744  -18.0356   22.9252 C.ar    1  UNL1        0.0038
      8 C          -9.2464  -18.4588   23.8852 C.ar    1  UNL1        0.0207
      9 C          -9.6209  -17.5674   25.0320 C.ar    1  UNL1        0.0989
     10 N          -8.9232  -16.2527   25.2188 N.ar    1  UNL1       -0.2423
     11 C          -7.8512  -15.8294   24.2589 C.ar    1  UNL1        0.0989
     12 C          -7.4768  -16.7209   23.1120 C.ar    1  UNL1        0.0207
     13 C         -11.0654  -17.1885   20.3417 C.1     1  UNL1       -0.0689
     14 C          -9.8521  -18.0651   20.4384 C.1     1  UNL1       -0.0614
     15 N         -12.5110  -15.4856   19.0149 N.3     1  UNL1       -0.3102
     16 C         -12.2787  -16.3118   20.2451 C.3     1  UNL1        0.1432
     17 H         -13.3759  -14.9551   19.1199 H       1  UNL1        0.1198
     18 H         -12.5844  -16.0983   18.2027 H       1  UNL1        0.1198
@<TRIPOS>BOND
     1    15    16    1
     2    16    13    1
     3    13    14    3
     4    14     1    1
     5     1     2   ar
     6     2     3   ar
     7     3     4   ar
     8     4     5   ar
     9     5     6   ar
    10     6     7    1
    11     7     8   ar
    12     8     9   ar
    13     9    10   ar
    14    10    11   ar
    15    11    12   ar
    16     6     1   ar
    17    12     7   ar
    18    15    17    1
    19    15    18    1
@<TRIPOS>MOLECULE
*****
 18 19 0 0 0
SMALL
GASTEIGER

@<TRIPOS>ATOM
      1 C         -12.1331   -6.7374   18.6210 C.ar    1  UNL1        0.0608
      2 C         -10.7089   -7.2080   18.6282 C.ar    1  UNL1        0.1071
      3 N          -9.5959   -6.2266   18.8473 N.ar    1  UNL1       -0.2417
      4 C          -9.9071   -4.7746   19.0592 C.ar    1  UNL1        0.0989
      5 C         -11.3313   -4.3041   19.0521 C.ar    1  UNL1        0.0213
      6 C         -12.4443   -5.2855   18.8329 C.ar    1  UNL1        0.0108
      7 C         -13.8686   -4.8149   18.8257 C.ar    1  UNL1        0.0038
      8 C         -14.4855   -4.3108   17.5548 C.ar    1  UNL1        0.0207
      9 C         -15.9097   -3.8402   17.5476 C.ar    1  UNL1        0.0989
     10 N         -16.7171   -3.8736   18.8113 N.ar    1  UNL1       -0.2423
     11 C         -16.1002   -4.3777   20.0823 C.ar    1  UNL1        0.0989
     12 C         -14.6759   -4.8483   20.0895 C.ar    1  UNL1        0.0207
     13 C         -14.3592   -8.7002   18.1827 C.1     1  UNL1       -0.0689
     14 C         -13.2462   -7.7188   18.4019 C.1     1  UNL1       -0.0614
     15 N         -15.2057  -11.1539   18.0695 N.3     1  UNL1       -0.3102
     16 C         -15.4722   -9.6816   17.9636 C.3     1  UNL1        0.1432
     17 H         -16.0679  -11.6691   17.8920 H       1  UNL1        0.1198
     18 H         -14.8662  -11.3715   19.0064 H       1  UNL1        0.1198
@<TRIPOS>BOND
     1    15    16    1
     2    16    13    1
     3    13    14    3
     4    14     1    1
     5     1     2   ar
     6     2     3   ar
     7     3     4   ar
     8     4     5   ar
     9     5     6   ar
    10     6     7    1
    11     7     8   ar
    12     8     9   ar
    13     9    10   ar
    14    10    11   ar
    15    11    12   ar
    16     6     1   ar
    17    12     7   ar
    18    15    17    1
    19    15    18    1
