@<TRIPOS>MOLECULE
*****
 37 40 0 0 0
SMALL
GASTEIGER

@<TRIPOS>ATOM
      1 C           1.6113    2.2510   18.5095 C.ar    1  UNL1        0.0527
      2 C           2.6943    3.2888   18.4946 C.ar    1  UNL1        0.0466
      3 C           4.1346    2.8699   18.4892 C.ar    1  UNL1        0.1684
      4 F           5.2175    3.9076   18.4744 F       1  UNL1       -0.2018
      5 C           4.4919    1.4130   18.4987 C.ar    1  UNL1        0.1652
      6 F           5.9322    0.9940   18.4933 F       1  UNL1       -0.2021
      7 C           3.4090    0.3753   18.5136 C.ar    1  UNL1        0.0288
      8 C           1.9687    0.7942   18.5189 C.ar    1  UNL1        0.0146
      9 C           3.7664   -1.0815   18.5230 C.3     1  UNL1        0.1085
     10 C           3.7283   -0.8323   17.0444 C.3     1  UNL1        0.0291
     11 C           3.6804   -0.8249   19.9984 C.3     1  UNL1        0.0425
     12 C           3.9385   -1.9384   20.9696 C.3     1  UNL1        0.0829
     13 S           4.2827   -3.3086   20.4656 S.3     1  UNL1       -0.0770
     14 C           4.3686   -3.5653   18.9902 C.2     1  UNL1        0.1484
     15 N           4.7128   -4.9355   18.4861 N.pl3   1  UNL1       -0.3380
     16 N           4.1105   -2.4517   18.0190 N.2     1  UNL1       -0.2508
     17 H           4.8822   -5.6663   19.1236 H       1  UNL1        0.1442
     18 H           4.7692   -5.1040   17.5178 H       1  UNL1        0.1442
     19 C           3.8525   -1.6817   22.4451 C.ar    1  UNL1        0.0376
     20 C           2.9804   -0.6603   23.1129 C.ar    1  UNL1        0.0974
     21 C           2.0410    0.2837   22.4226 C.3     1  UNL1        0.0553
     22 N           3.2124   -0.7488   24.5922 N.ar    1  UNL1       -0.0821
     23 O           4.2281   -1.8248   24.8386 O.2     1  UNL1       -0.3584
     24 C           4.6237   -2.4014   23.5115 C.ar    1  UNL1        0.1512
     25 C           5.6161   -3.5040   23.2900 C.3     1  UNL1        0.0750
     26 C          -0.5076    3.0056   19.8097 C.2     1  UNL1        0.2688
     27 O           0.2541    2.9223   21.0992 O.2     1  UNL1       -0.2681
     28 N           0.1711    2.6700   18.5148 N.am    1  UNL1       -0.2790
     29 H          -0.3288    2.7246   17.6685 H       1  UNL1        0.1552
     30 C          -4.8284    4.2626   19.8259 C.ar    1  UNL1        0.2449
     31 C          -4.3202    3.3112   20.8682 C.ar    1  UNL1        0.1565
     32 N          -2.8799    2.8922   20.8628 N.ar    1  UNL1       -0.2328
     33 C          -1.9478    3.4246   19.8151 C.ar    1  UNL1        0.1541
     34 C          -2.4561    4.3760   18.7727 C.ar    1  UNL1        0.1258
     35 N          -3.8964    4.7949   18.7781 N.ar    1  UNL1       -0.2071
     36 C          -6.9364    5.0546   21.1215 C.3     1  UNL1        0.2543
     37 O          -6.2687    4.6815   19.8313 O.3     1  UNL1       -0.4551
@<TRIPOS>BOND
     1    36    37    1
     2    37    30    1
     3    30    31   ar
     4    31    32   ar
     5    32    33   ar
     6    33    26    1
     7    26    27    2
     8    26    28   am
     9    28     1    1
    10     1     2   ar
    11     2     3   ar
    12     3     4    1
    13     3     5   ar
    14     5     6    1
    15     5     7   ar
    16     7     9    1
    17     9    10    1
    18     9    11    1
    19    11    12    1
    20    12    19    1
    21    19    20   ar
    22    20    21    1
    23    20    22   ar
    24    22    23   ar
    25    23    24   ar
    26    24    25    1
    27    12    13    1
    28    13    14    1
    29    14    15    1
    30    14    16    2
    31     7     8   ar
    32    33    34   ar
    33    34    35   ar
    34    35    30   ar
    35     8     1   ar
    36    16     9    1
    37    24    19   ar
    38    28    29    1
    39    15    17    1
    40    15    18    1
@<TRIPOS>MOLECULE
*****
 37 40 0 0 0
SMALL
GASTEIGER

@<TRIPOS>ATOM
      1 C           6.4306   -2.3010   24.5391 C.ar    1  UNL1        0.0527
      2 C           7.1891   -1.0887   24.9922 C.ar    1  UNL1        0.0466
      3 C           6.7086    0.2811   24.6143 C.ar    1  UNL1        0.1684
      4 F           7.4669    1.4934   25.0672 F       1  UNL1       -0.2018
      5 C           5.4696    0.4386   23.7834 C.ar    1  UNL1        0.1652
      6 F           4.9891    1.8084   23.4055 F       1  UNL1       -0.2021
      7 C           4.7113   -0.7737   23.3304 C.ar    1  UNL1        0.0288
      8 C           5.1918   -2.1435   23.7083 C.ar    1  UNL1        0.0146
      9 C           3.4724   -0.6162   22.4996 C.3     1  UNL1        0.1085
     10 C           2.8952   -0.4125   23.8690 C.3     1  UNL1        0.0291
     11 C           4.4797   -0.8746   21.4186 C.3     1  UNL1        0.0425
     12 C           4.0478   -0.9047   19.9825 C.3     1  UNL1        0.0829
     13 S           2.6084   -0.6764   19.6273 S.3     1  UNL1       -0.0770
     14 C           1.6010   -0.4180   20.7082 C.2     1  UNL1        0.1484
     15 N           0.1617   -0.1898   20.3530 N.pl3   1  UNL1       -0.3380
     16 N           2.0330   -0.3879   22.1443 N.2     1  UNL1       -0.2508
     17 H          -0.1218   -0.2096   19.4104 H       1  UNL1        0.1442
     18 H          -0.4995   -0.0202   21.0624 H       1  UNL1        0.1442
     19 C           5.0552   -1.1631   18.9016 C.ar    1  UNL1        0.0376
     20 C           5.6227   -2.4999   18.5266 C.ar    1  UNL1        0.0974
     21 C           5.2825   -3.8132   19.1667 C.3     1  UNL1        0.0553
     22 N           6.5902   -2.2930   17.3991 N.ar    1  UNL1       -0.0821
     23 O           6.6206   -0.8282   17.0773 O.2     1  UNL1       -0.3584
     24 C           5.6719   -0.1299   18.0059 C.ar    1  UNL1        0.1512
     25 C           5.3895    1.3430   18.0339 C.3     1  UNL1        0.0750
     26 C           6.7566   -4.1572   26.3275 C.2     1  UNL1        0.2688
     27 O           6.1216   -3.2738   27.3601 O.2     1  UNL1       -0.2681
     28 N           6.9111   -3.6708   24.9170 N.am    1  UNL1       -0.2790
     29 H           7.3280   -4.2506   24.2393 H       1  UNL1        0.1552
     30 C           8.1981   -8.2666   27.4611 C.ar    1  UNL1        0.2449
     31 C           7.7623   -7.9865   26.0534 C.ar    1  UNL1        0.1565
     32 N           7.2818   -6.6167   25.6756 N.ar    1  UNL1       -0.2328
     33 C           7.2371   -5.5270   26.7053 C.ar    1  UNL1        0.1541
     34 C           7.6730   -5.8071   28.1130 C.ar    1  UNL1        0.1258
     35 N           8.1535   -7.1769   28.4909 N.ar    1  UNL1       -0.2071
     36 C           7.7048  -10.7733   27.9330 C.3     1  UNL1        0.2543
     37 O           8.6786   -9.6364   27.8390 O.3     1  UNL1       -0.4551
@<TRIPOS>BOND
     1    36    37    1
     2    37    30    1
     3    30    31   ar
     4    31    32   ar
     5    32    33   ar
     6    33    26    1
     7    26    27    2
     8    26    28   am
     9    28     1    1
    10     1     2   ar
    11     2     3   ar
    12     3     4    1
    13     3     5   ar
    14     5     6    1
    15     5     7   ar
    16     7     9    1
    17     9    10    1
    18     9    11    1
    19    11    12    1
    20    12    19    1
    21    19    20   ar
    22    20    21    1
    23    20    22   ar
    24    22    23   ar
    25    23    24   ar
    26    24    25    1
    27    12    13    1
    28    13    14    1
    29    14    15    1
    30    14    16    2
    31     7     8   ar
    32    33    34   ar
    33    34    35   ar
    34    35    30   ar
    35     8     1   ar
    36    16     9    1
    37    24    19   ar
    38    28    29    1
    39    15    17    1
    40    15    18    1
@<TRIPOS>MOLECULE
*****
 37 40 0 0 0
SMALL
GASTEIGER

@<TRIPOS>ATOM
      1 C           4.9148   -3.1681   22.2402 C.ar    1  UNL1        0.0527
      2 C           4.2658   -4.1918   21.3565 C.ar    1  UNL1        0.0466
      3 C           3.8946   -3.8385   19.9468 C.ar    1  UNL1        0.1684
      4 F           3.2456   -4.8621   19.0631 F       1  UNL1       -0.2018
      5 C           4.1725   -2.4615   19.4207 C.ar    1  UNL1        0.1652
      6 F           3.8014   -2.1082   18.0109 F       1  UNL1       -0.2021
      7 C           4.8216   -1.4379   20.3044 C.ar    1  UNL1        0.0288
      8 C           5.1927   -1.7912   21.7141 C.ar    1  UNL1        0.0146
      9 C           5.0994   -0.0610   19.7783 C.3     1  UNL1        0.1085
     10 C           6.4086   -0.7259   19.4718 C.3     1  UNL1        0.0291
     11 C           3.6938    0.1259   20.2674 C.3     1  UNL1        0.0425
     12 C           3.0207    1.4587   20.1240 C.3     1  UNL1        0.0829
     13 S           3.7533    2.6047   19.4915 S.3     1  UNL1       -0.0770
     14 C           5.1589    2.4179   19.0024 C.2     1  UNL1        0.1484
     15 N           5.8915    3.5639   18.3698 N.pl3   1  UNL1       -0.3380
     16 N           5.8320    1.0850   19.1458 N.2     1  UNL1       -0.2508
     17 H           5.4497    4.4386   18.2757 H       1  UNL1        0.1442
     18 H           6.8140    3.4413   18.0488 H       1  UNL1        0.1442
     19 C           1.6151    1.6455   20.6132 C.ar    1  UNL1        0.0376
     20 C           0.4159    1.9356   19.7601 C.ar    1  UNL1        0.0974
     21 C           0.4118    2.0898   18.2680 C.3     1  UNL1        0.0553
     22 N          -0.7785    2.0445   20.6610 N.ar    1  UNL1       -0.0821
     23 O          -0.3175    1.8216   22.0709 O.2     1  UNL1       -0.3584
     24 C           1.1619    1.5751   22.0413 C.ar    1  UNL1        0.1512
     25 C           2.0346    1.3054   23.2310 C.3     1  UNL1        0.0750
     26 C           6.4968   -4.3653   23.9177 C.2     1  UNL1        0.2688
     27 O           7.3365   -4.8558   22.7757 O.2     1  UNL1       -0.2681
     28 N           5.2860   -3.5214   23.6500 N.am    1  UNL1       -0.2790
     29 H           4.7349   -3.1995   24.3995 H       1  UNL1        0.1552
     30 C           7.6103   -5.4252   28.1470 C.ar    1  UNL1        0.2449
     31 C           7.5480   -6.4949   27.0973 C.ar    1  UNL1        0.1565
     32 N           7.1769   -6.1415   25.6876 N.ar    1  UNL1       -0.2328
     33 C           6.8680   -4.7186   25.3275 C.ar    1  UNL1        0.1541
     34 C           6.9303   -3.6489   26.3772 C.ar    1  UNL1        0.1258
     35 N           7.3014   -4.0022   27.7869 N.ar    1  UNL1       -0.2071
     36 C           6.9563   -5.6861   30.6478 C.3     1  UNL1        0.2543
     37 O           7.9814   -5.7785   29.5568 O.3     1  UNL1       -0.4551
@<TRIPOS>BOND
     1    36    37    1
     2    37    30    1
     3    30    31   ar
     4    31    32   ar
     5    32    33   ar
     6    33    26    1
     7    26    27    2
     8    26    28   am
     9    28     1    1
    10     1     2   ar
    11     2     3   ar
    12     3     4    1
    13     3     5   ar
    14     5     6    1
    15     5     7   ar
    16     7     9    1
    17     9    10    1
    18     9    11    1
    19    11    12    1
    20    12    19    1
    21    19    20   ar
    22    20    21    1
    23    20    22   ar
    24    22    23   ar
    25    23    24   ar
    26    24    25    1
    27    12    13    1
    28    13    14    1
    29    14    15    1
    30    14    16    2
    31     7     8   ar
    32    33    34   ar
    33    34    35   ar
    34    35    30   ar
    35     8     1   ar
    36    16     9    1
    37    24    19   ar
    38    28    29    1
    39    15    17    1
    40    15    18    1
@<TRIPOS>MOLECULE
*****
 37 40 0 0 0
SMALL
GASTEIGER

@<TRIPOS>ATOM
      1 C         -15.6972   -0.5935   19.0629 C.ar    1  UNL1        0.0527
      2 C         -16.0080    0.0383   17.7384 C.ar    1  UNL1        0.0466
      3 C         -16.9213    1.2263   17.6700 C.ar    1  UNL1        0.1684
      4 F         -17.2321    1.8581   16.3455 F       1  UNL1       -0.2018
      5 C         -17.5238    1.7824   18.9261 C.ar    1  UNL1        0.1652
      6 F         -18.4371    2.9704   18.8577 F       1  UNL1       -0.2021
      7 C         -17.2130    1.1506   20.2505 C.ar    1  UNL1        0.0288
      8 C         -16.2997   -0.0374   20.3189 C.ar    1  UNL1        0.0146
      9 C         -17.8155    1.7067   21.5066 C.3     1  UNL1        0.1085
     10 C         -18.7792    0.5919   21.2269 C.3     1  UNL1        0.0291
     11 C         -16.6425    2.6285   21.3501 C.3     1  UNL1        0.0425
     12 C         -16.4067    3.7191   22.3525 C.3     1  UNL1        0.0829
     13 S         -17.3439    3.8881   23.5114 S.3     1  UNL1       -0.0770
     14 C         -18.5169    2.9663   23.6679 C.2     1  UNL1        0.1484
     15 N         -19.4541    3.1353   24.8269 N.pl3   1  UNL1       -0.3380
     16 N         -18.7526    1.8757   22.6655 N.2     1  UNL1       -0.2508
     17 H         -19.2993    3.8512   25.4848 H       1  UNL1        0.1442
     18 H         -20.2240    2.5304   24.9296 H       1  UNL1        0.1442
     19 C         -15.2337    4.6409   22.1960 C.ar    1  UNL1        0.0376
     20 C         -14.8401    5.3617   20.9408 C.ar    1  UNL1        0.0974
     21 C         -15.5505    5.2873   19.6217 C.3     1  UNL1        0.0553
     22 N         -13.6115    6.1699   21.2363 N.ar    1  UNL1       -0.0821
     23 O         -13.2458    5.9486   22.6741 O.2     1  UNL1       -0.3584
     24 C         -14.2484    5.0036   23.2672 C.ar    1  UNL1        0.1512
     25 C         -14.2630    4.5083   24.6830 C.3     1  UNL1        0.0750
     26 C         -13.3179   -1.6170   18.8601 C.2     1  UNL1        0.2688
     27 O         -12.7651   -0.2646   18.5205 O.2     1  UNL1       -0.2681
     28 N         -14.7840   -1.7815   19.1313 N.am    1  UNL1       -0.2790
     29 H         -15.1468   -2.6691   19.3542 H       1  UNL1        0.1552
     30 C         -10.5781   -5.1809   19.0653 C.ar    1  UNL1        0.2449
     31 C         -10.0508   -3.8552   18.6022 C.ar    1  UNL1        0.1565
     32 N         -10.9641   -2.6672   18.5339 N.ar    1  UNL1       -0.2328
     33 C         -12.4046   -2.8050   18.9285 C.ar    1  UNL1        0.1541
     34 C         -12.9319   -4.1307   19.3915 C.ar    1  UNL1        0.1258
     35 N         -12.0186   -5.3186   19.4599 N.ar    1  UNL1       -0.2071
     36 C          -9.9430   -7.5782   18.2911 C.3     1  UNL1        0.2543
     37 O          -9.6648   -6.3689   19.1336 O.3     1  UNL1       -0.4551
@<TRIPOS>BOND
     1    36    37    1
     2    37    30    1
     3    30    31   ar
     4    31    32   ar
     5    32    33   ar
     6    33    26    1
     7    26    27    2
     8    26    28   am
     9    28     1    1
    10     1     2   ar
    11     2     3   ar
    12     3     4    1
    13     3     5   ar
    14     5     6    1
    15     5     7   ar
    16     7     9    1
    17     9    10    1
    18     9    11    1
    19    11    12    1
    20    12    19    1
    21    19    20   ar
    22    20    21    1
    23    20    22   ar
    24    22    23   ar
    25    23    24   ar
    26    24    25    1
    27    12    13    1
    28    13    14    1
    29    14    15    1
    30    14    16    2
    31     7     8   ar
    32    33    34   ar
    33    34    35   ar
    34    35    30   ar
    35     8     1   ar
    36    16     9    1
    37    24    19   ar
    38    28    29    1
    39    15    17    1
    40    15    18    1
@<TRIPOS>MOLECULE
*****
 37 40 0 0 0
SMALL
GASTEIGER

@<TRIPOS>ATOM
      1 C           3.5473    0.3284   31.7020 C.ar    1  UNL1        0.0527
      2 C           3.5763   -1.0931   32.1801 C.ar    1  UNL1        0.0466
      3 C           4.3267   -1.4491   33.4292 C.ar    1  UNL1        0.1684
      4 F           4.3557   -2.8705   33.9073 F       1  UNL1       -0.2018
      5 C           5.0481   -0.3835   34.2001 C.ar    1  UNL1        0.1652
      6 F           5.7985   -0.7395   35.4492 F       1  UNL1       -0.2021
      7 C           5.0191    1.0379   33.7220 C.ar    1  UNL1        0.0288
      8 C           4.2687    1.3939   32.4729 C.ar    1  UNL1        0.0146
      9 C           5.7405    2.1034   34.4929 C.3     1  UNL1        0.1085
     10 C           6.8075    1.7268   33.5081 C.3     1  UNL1        0.0291
     11 C           4.4230    2.1100   35.2100 C.3     1  UNL1        0.0425
     12 C           4.1975    3.0512   36.3559 C.3     1  UNL1        0.0829
     13 S           5.2894    3.9859   36.7848 S.3     1  UNL1       -0.0770
     14 C           6.6069    3.9793   36.0677 C.2     1  UNL1        0.1484
     15 N           7.6989    4.9140   36.4967 N.pl3   1  UNL1       -0.3380
     16 N           6.8324    3.0380   34.9218 N.2     1  UNL1       -0.2508
     17 H           7.5509    5.5318   37.2488 H       1  UNL1        0.1442
     18 H           8.5636    4.9097   36.0261 H       1  UNL1        0.1442
     19 C           2.8799    3.0577   37.0729 C.ar    1  UNL1        0.0376
     20 C           2.4616    2.1096   38.1573 C.ar    1  UNL1        0.0974
     21 C           3.2874    0.9884   38.7151 C.3     1  UNL1        0.0553
     22 N           1.0726    2.4795   38.5861 N.ar    1  UNL1       -0.0821
     23 O           0.6324    3.6563   37.7666 O.2     1  UNL1       -0.3584
     24 C           1.7495    4.0136   36.8314 C.ar    1  UNL1        0.1512
     25 C           1.7380    5.1307   35.8305 C.3     1  UNL1        0.0750
     26 C           1.4424    1.3219   30.5477 C.2     1  UNL1        0.2688
     27 O           0.8384    1.6034   31.8914 O.2     1  UNL1       -0.2681
     28 N           2.7969    0.6844   30.4529 N.am    1  UNL1       -0.2790
     29 H           3.1933    0.4996   29.5709 H       1  UNL1        0.1552
     30 C          -0.8088    2.3898   26.8005 C.ar    1  UNL1        0.2449
     31 C          -0.2617    3.4736   27.6813 C.ar    1  UNL1        0.1565
     32 N           0.4888    3.1176   28.9303 N.ar    1  UNL1       -0.2328
     33 C           0.6920    1.6778   29.2986 C.ar    1  UNL1        0.1541
     34 C           0.1448    0.5940   28.4178 C.ar    1  UNL1        0.1258
     35 N          -0.6056    0.9500   27.1687 N.ar    1  UNL1       -0.2071
     36 C          -2.5472    3.8743   25.5659 C.3     1  UNL1        0.2543
     37 O          -1.5593    2.7457   25.5514 O.3     1  UNL1       -0.4551
@<TRIPOS>BOND
     1    36    37    1
     2    37    30    1
     3    30    31   ar
     4    31    32   ar
     5    32    33   ar
     6    33    26    1
     7    26    27    2
     8    26    28   am
     9    28     1    1
    10     1     2   ar
    11     2     3   ar
    12     3     4    1
    13     3     5   ar
    14     5     6    1
    15     5     7   ar
    16     7     9    1
    17     9    10    1
    18     9    11    1
    19    11    12    1
    20    12    19    1
    21    19    20   ar
    22    20    21    1
    23    20    22   ar
    24    22    23   ar
    25    23    24   ar
    26    24    25    1
    27    12    13    1
    28    13    14    1
    29    14    15    1
    30    14    16    2
    31     7     8   ar
    32    33    34   ar
    33    34    35   ar
    34    35    30   ar
    35     8     1   ar
    36    16     9    1
    37    24    19   ar
    38    28    29    1
    39    15    17    1
    40    15    18    1
@<TRIPOS>MOLECULE
*****
 37 40 0 0 0
SMALL
GASTEIGER

@<TRIPOS>ATOM
      1 C           6.0961   -0.9467   25.0379 C.ar    1  UNL1        0.0527
      2 C           7.0519    0.1980   24.8758 C.ar    1  UNL1        0.0466
      3 C           6.7408    1.3040   23.9115 C.ar    1  UNL1        0.1684
      4 F           7.6966    2.4486   23.7493 F       1  UNL1       -0.2018
      5 C           5.4739    1.2653   23.1092 C.ar    1  UNL1        0.1652
      6 F           5.1628    2.3713   22.1449 F       1  UNL1       -0.2021
      7 C           4.5182    0.1207   23.2714 C.ar    1  UNL1        0.0288
      8 C           4.8292   -0.9853   24.2357 C.ar    1  UNL1        0.0146
      9 C           3.2513    0.0821   22.4692 C.3     1  UNL1        0.1085
     10 C           2.7151    0.5790   23.7789 C.3     1  UNL1        0.0291
     11 C           4.2274   -0.4015   21.4379 C.3     1  UNL1        0.0425
     12 C           3.7505   -0.7510   20.0594 C.3     1  UNL1        0.0829
     13 S           2.2974   -0.6171   19.7121 S.3     1  UNL1       -0.0770
     14 C           1.3213   -0.1335   20.7433 C.2     1  UNL1        0.1484
     15 N          -0.1318    0.0005   20.3959 N.pl3   1  UNL1       -0.3380
     16 N           1.7983    0.2160   22.1218 N.2     1  UNL1       -0.2508
     17 H          -0.4448   -0.2290   19.4912 H       1  UNL1        0.1442
     18 H          -0.7725    0.3178   21.0727 H       1  UNL1        0.1442
     19 C           4.7266   -1.2346   19.0282 C.ar    1  UNL1        0.0376
     20 C           4.9240   -2.6586   18.6004 C.ar    1  UNL1        0.0974
     21 C           4.1799   -3.8492   19.1286 C.3     1  UNL1        0.0553
     22 N           5.9961   -2.6831   17.5515 N.ar    1  UNL1       -0.0821
     23 O           6.4613   -1.2742   17.3312 O.2     1  UNL1       -0.3584
     24 C           5.6767   -0.3790   18.2439 C.ar    1  UNL1        0.1512
     25 C           5.8175    1.1104   18.3530 C.3     1  UNL1        0.0750
     26 C           5.9755   -1.9425   27.4346 C.2     1  UNL1        0.2688
     27 O           5.2327   -0.7262   27.9025 O.2     1  UNL1       -0.2681
     28 N           6.4072   -2.0527   26.0023 N.am    1  UNL1       -0.2790
     29 H           6.8947   -2.8510   25.6952 H       1  UNL1        0.1552
     30 C           6.9087   -5.2605   30.3276 C.ar    1  UNL1        0.2449
     31 C           6.8694   -3.8388   30.8042 C.ar    1  UNL1        0.1565
     32 N           6.5583   -2.7328   29.8399 N.ar    1  UNL1       -0.2328
     33 C           6.2865   -3.0485   28.3989 C.ar    1  UNL1        0.1541
     34 C           6.3258   -4.4702   27.9223 C.ar    1  UNL1        0.1258
     35 N           6.6369   -5.5762   28.8867 N.ar    1  UNL1       -0.2071
     36 C           8.6410   -6.6407   31.6857 C.3     1  UNL1        0.2543
     37 O           7.2198   -6.3665   31.2920 O.3     1  UNL1       -0.4551
@<TRIPOS>BOND
     1    36    37    1
     2    37    30    1
     3    30    31   ar
     4    31    32   ar
     5    32    33   ar
     6    33    26    1
     7    26    27    2
     8    26    28   am
     9    28     1    1
    10     1     2   ar
    11     2     3   ar
    12     3     4    1
    13     3     5   ar
    14     5     6    1
    15     5     7   ar
    16     7     9    1
    17     9    10    1
    18     9    11    1
    19    11    12    1
    20    12    19    1
    21    19    20   ar
    22    20    21    1
    23    20    22   ar
    24    22    23   ar
    25    23    24   ar
    26    24    25    1
    27    12    13    1
    28    13    14    1
    29    14    15    1
    30    14    16    2
    31     7     8   ar
    32    33    34   ar
    33    34    35   ar
    34    35    30   ar
    35     8     1   ar
    36    16     9    1
    37    24    19   ar
    38    28    29    1
    39    15    17    1
    40    15    18    1
@<TRIPOS>MOLECULE
*****
 37 40 0 0 0
SMALL
GASTEIGER

@<TRIPOS>ATOM
      1 C           4.4920   -2.9631   22.1904 C.ar    1  UNL1        0.0527
      2 C           4.6650   -4.0864   21.2113 C.ar    1  UNL1        0.0466
      3 C           4.3768   -3.8640   19.7562 C.ar    1  UNL1        0.1684
      4 F           4.5497   -4.9871   18.7771 F       1  UNL1       -0.2018
      5 C           3.9156   -2.5183   19.2801 C.ar    1  UNL1        0.1652
      6 F           3.6274   -2.2959   17.8249 F       1  UNL1       -0.2021
      7 C           3.7427   -1.3951   20.2591 C.ar    1  UNL1        0.0288
      8 C           4.0309   -1.6175   21.7143 C.ar    1  UNL1        0.0146
      9 C           3.2815   -0.0496   19.7830 C.3     1  UNL1        0.1085
     10 C           1.9602   -0.6717   20.1250 C.3     1  UNL1        0.0291
     11 C           4.7630    0.1054   19.6063 C.3     1  UNL1        0.0425
     12 C           5.3244    1.3897   19.0723 C.3     1  UNL1        0.0829
     13 S           4.4043    2.5192   18.7150 S.3     1  UNL1       -0.0770
     14 C           2.9228    2.3644   18.8917 C.2     1  UNL1        0.1484
     15 N           2.0028    3.4939   18.5343 N.pl3   1  UNL1       -0.3380
     16 N           2.3615    1.0800   19.4257 N.2     1  UNL1       -0.2508
     17 H           2.3713    4.3368   18.1838 H       1  UNL1        0.1442
     18 H           1.0304    3.3922   18.6503 H       1  UNL1        0.1442
     19 C           6.8059    1.5446   18.8956 C.ar    1  UNL1        0.0376
     20 C           7.5592    1.4065   17.6059 C.ar    1  UNL1        0.0974
     21 C           6.9632    1.0893   16.2664 C.3     1  UNL1        0.0553
     22 N           9.0131    1.6413   17.8908 N.ar    1  UNL1       -0.0821
     23 O           9.1583    1.9246   19.3567 O.2     1  UNL1       -0.3584
     24 C           7.7941    1.8648   19.9777 C.ar    1  UNL1        0.1512
     25 C           7.4744    2.0863   21.4263 C.3     1  UNL1        0.0750
     26 C           6.1799   -3.4820   24.0961 C.2     1  UNL1        0.2688
     27 O           7.2913   -3.5560   23.0916 O.2     1  UNL1       -0.2681
     28 N           4.7802   -3.1855   23.6455 N.am    1  UNL1       -0.2790
     29 H           4.0507   -3.1369   24.3049 H       1  UNL1        0.1552
     30 C           7.0445   -4.1492   28.4616 C.ar    1  UNL1        0.2449
     31 C           6.3783   -2.8820   28.0141 C.ar    1  UNL1        0.1565
     32 N           6.0901   -2.6596   26.5590 N.ar    1  UNL1       -0.2328
     33 C           6.4681   -3.7044   25.5513 C.ar    1  UNL1        0.1541
     34 C           7.1343   -4.9716   25.9988 C.ar    1  UNL1        0.1258
     35 N           7.4225   -5.1940   27.4539 N.ar    1  UNL1       -0.2071
     36 C           6.9659   -5.6744   30.5634 C.3     1  UNL1        0.2543
     37 O           7.3327   -4.3716   29.9167 O.3     1  UNL1       -0.4551
@<TRIPOS>BOND
     1    36    37    1
     2    37    30    1
     3    30    31   ar
     4    31    32   ar
     5    32    33   ar
     6    33    26    1
     7    26    27    2
     8    26    28   am
     9    28     1    1
    10     1     2   ar
    11     2     3   ar
    12     3     4    1
    13     3     5   ar
    14     5     6    1
    15     5     7   ar
    16     7     9    1
    17     9    10    1
    18     9    11    1
    19    11    12    1
    20    12    19    1
    21    19    20   ar
    22    20    21    1
    23    20    22   ar
    24    22    23   ar
    25    23    24   ar
    26    24    25    1
    27    12    13    1
    28    13    14    1
    29    14    15    1
    30    14    16    2
    31     7     8   ar
    32    33    34   ar
    33    34    35   ar
    34    35    30   ar
    35     8     1   ar
    36    16     9    1
    37    24    19   ar
    38    28    29    1
    39    15    17    1
    40    15    18    1
@<TRIPOS>MOLECULE
*****
 37 40 0 0 0
SMALL
GASTEIGER

@<TRIPOS>ATOM
      1 C           5.6006   -0.8555   24.7980 C.ar    1  UNL1        0.0527
      2 C           6.9275   -0.1605   24.7186 C.ar    1  UNL1        0.0466
      3 C           7.8172   -0.3763   23.5304 C.ar    1  UNL1        0.1684
      4 F           9.1441    0.3186   23.4509 F       1  UNL1       -0.2018
      5 C           7.3800   -1.2871   22.4216 C.ar    1  UNL1        0.1652
      6 F           8.2697   -1.5029   21.2334 F       1  UNL1       -0.2021
      7 C           6.0531   -1.9821   22.5011 C.ar    1  UNL1        0.0288
      8 C           5.1634   -1.7662   23.6893 C.ar    1  UNL1        0.0146
      9 C           5.6159   -2.8928   21.3923 C.3     1  UNL1        0.1085
     10 C           6.3945   -3.8609   22.2329 C.3     1  UNL1        0.0291
     11 C           4.9891   -1.6085   20.9368 C.3     1  UNL1        0.0425
     12 C           4.1956   -1.5711   19.6644 C.3     1  UNL1        0.0829
     13 S           4.0288   -2.8181   18.8476 S.3     1  UNL1       -0.0770
     14 C           4.6556   -4.1025   19.3032 C.2     1  UNL1        0.1484
     15 N           4.4888   -5.3495   18.4863 N.pl3   1  UNL1       -0.3380
     16 N           5.4491   -4.1398   20.5755 N.2     1  UNL1       -0.2508
     17 H           3.9679   -5.3249   17.6513 H       1  UNL1        0.1442
     18 H           4.9001   -6.1924   18.7853 H       1  UNL1        0.1442
     19 C           3.5688   -0.2867   19.2089 C.ar    1  UNL1        0.0376
     20 C           2.1497    0.1356   19.4491 C.ar    1  UNL1        0.0974
     21 C           1.1082   -0.6523   20.1870 C.3     1  UNL1        0.0553
     22 N           1.9549    1.4842   18.8218 N.ar    1  UNL1       -0.0821
     23 O           3.2537    1.8953   18.1939 O.2     1  UNL1       -0.3584
     24 C           4.2511    0.8008   18.4332 C.ar    1  UNL1        0.1512
     25 C           5.6799    0.7949   17.9768 C.3     1  UNL1        0.0750
     26 C           3.6355    0.4049   25.9381 C.2     1  UNL1        0.2688
     27 O           3.4498    1.2337   24.7017 O.2     1  UNL1       -0.2681
     28 N           4.7109   -0.6397   25.9862 N.am    1  UNL1       -0.2790
     29 H           4.8327   -1.1836   26.7977 H       1  UNL1        0.1552
     30 C           0.9664    1.0524   29.5027 C.ar    1  UNL1        0.2449
     31 C           1.6577   -0.2652   29.3129 C.ar    1  UNL1        0.1565
     32 N           2.5474   -0.4810   28.1247 N.ar    1  UNL1       -0.2328
     33 C           2.7458    0.6207   27.1263 C.ar    1  UNL1        0.1541
     34 C           2.0544    1.9383   27.3161 C.ar    1  UNL1        0.1258
     35 N           1.1647    2.1541   28.5043 N.ar    1  UNL1       -0.2071
     36 C           0.4226    2.3166   31.7064 C.3     1  UNL1        0.2543
     37 O           0.0766    1.2682   30.6909 O.3     1  UNL1       -0.4551
@<TRIPOS>BOND
     1    36    37    1
     2    37    30    1
     3    30    31   ar
     4    31    32   ar
     5    32    33   ar
     6    33    26    1
     7    26    27    2
     8    26    28   am
     9    28     1    1
    10     1     2   ar
    11     2     3   ar
    12     3     4    1
    13     3     5   ar
    14     5     6    1
    15     5     7   ar
    16     7     9    1
    17     9    10    1
    18     9    11    1
    19    11    12    1
    20    12    19    1
    21    19    20   ar
    22    20    21    1
    23    20    22   ar
    24    22    23   ar
    25    23    24   ar
    26    24    25    1
    27    12    13    1
    28    13    14    1
    29    14    15    1
    30    14    16    2
    31     7     8   ar
    32    33    34   ar
    33    34    35   ar
    34    35    30   ar
    35     8     1   ar
    36    16     9    1
    37    24    19   ar
    38    28    29    1
    39    15    17    1
    40    15    18    1
@<TRIPOS>MOLECULE
*****
 37 40 0 0 0
SMALL
GASTEIGER

@<TRIPOS>ATOM
      1 C           0.4233    1.8899   30.2208 C.ar    1  UNL1        0.0527
      2 C          -0.2171    0.5937   29.8209 C.ar    1  UNL1        0.0466
      3 C          -0.6800    0.3902   28.4087 C.ar    1  UNL1        0.1684
      4 F          -1.3204   -0.9059   28.0088 F       1  UNL1       -0.2018
      5 C          -0.5025    1.4828   27.3964 C.ar    1  UNL1        0.1652
      6 F          -0.9654    1.2793   25.9842 F       1  UNL1       -0.2021
      7 C           0.1379    2.7789   27.7964 C.ar    1  UNL1        0.0288
      8 C           0.6008    2.9825   29.2086 C.ar    1  UNL1        0.0146
      9 C           0.3153    3.8715   26.7841 C.3     1  UNL1        0.1085
     10 C           1.6182    3.1473   26.6167 C.3     1  UNL1        0.0291
     11 C          -1.0492    4.2164   27.3029 C.3     1  UNL1        0.0425
     12 C          -1.7837    5.4022   26.7514 C.3     1  UNL1        0.0829
     13 S          -1.1538    6.2433   25.6810 S.3     1  UNL1       -0.0770
     14 C           0.2108    5.8985   25.1621 C.2     1  UNL1        0.1484
     15 N           0.8407    6.7395   24.0917 N.pl3   1  UNL1       -0.3380
     16 N           0.9453    4.7126   25.7137 N.2     1  UNL1       -0.2508
     17 H           0.3586    7.5178   23.7297 H       1  UNL1        0.1442
     18 H           1.7363    6.5132   23.7512 H       1  UNL1        0.1442
     19 C          -3.1482    5.7470   27.2703 C.ar    1  UNL1        0.0376
     20 C          -4.4360    5.0912   26.8684 C.ar    1  UNL1        0.0974
     21 C          -4.5853    3.9755   25.8770 C.3     1  UNL1        0.0553
     22 N          -5.5482    5.7471   27.6319 N.ar    1  UNL1       -0.0821
     23 O          -4.9477    6.8082   28.5057 O.2     1  UNL1       -0.3584
     24 C          -3.4644    6.8081   28.2822 C.ar    1  UNL1        0.1512
     25 C          -2.4718    7.7108   28.9529 C.3     1  UNL1        0.0750
     26 C           2.1961    1.5177   32.0833 C.2     1  UNL1        0.2688
     27 O           3.0430    0.7384   31.1213 O.2     1  UNL1       -0.2681
     28 N           0.8862    2.0934   31.6330 N.am    1  UNL1       -0.2790
     29 H           0.3303    2.6049   32.2644 H       1  UNL1        0.1552
     30 C           3.5848    2.1283   36.3199 C.ar    1  UNL1        0.2449
     31 C           2.4201    2.9123   35.7920 C.ar    1  UNL1        0.1565
     32 N           1.9571    2.7088   34.3798 N.ar    1  UNL1       -0.2328
     33 C           2.6590    1.7212   33.4955 C.ar    1  UNL1        0.1541
     34 C           3.8237    0.9372   34.0233 C.ar    1  UNL1        0.1258
     35 N           4.2866    1.1407   35.4355 N.ar    1  UNL1       -0.2071
     36 C           3.7670    1.2872   38.7712 C.3     1  UNL1        0.2543
     37 O           4.0477    2.3318   37.7321 O.3     1  UNL1       -0.4551
@<TRIPOS>BOND
     1    36    37    1
     2    37    30    1
     3    30    31   ar
     4    31    32   ar
     5    32    33   ar
     6    33    26    1
     7    26    27    2
     8    26    28   am
     9    28     1    1
    10     1     2   ar
    11     2     3   ar
    12     3     4    1
    13     3     5   ar
    14     5     6    1
    15     5     7   ar
    16     7     9    1
    17     9    10    1
    18     9    11    1
    19    11    12    1
    20    12    19    1
    21    19    20   ar
    22    20    21    1
    23    20    22   ar
    24    22    23   ar
    25    23    24   ar
    26    24    25    1
    27    12    13    1
    28    13    14    1
    29    14    15    1
    30    14    16    2
    31     7     8   ar
    32    33    34   ar
    33    34    35   ar
    34    35    30   ar
    35     8     1   ar
    36    16     9    1
    37    24    19   ar
    38    28    29    1
    39    15    17    1
    40    15    18    1
