@<TRIPOS>MOLECULE
*****
 23 24 0 0 0
SMALL
GASTEIGER

@<TRIPOS>ATOM
      1 C          -7.6959  -19.3535   22.1210 C.3     1  UNL1        0.0435
      2 C          -3.7633  -19.0304   21.6965 C.ar    1  UNL1        0.1382
      3 C          -3.5030  -20.0810   20.6581 C.ar    1  UNL1        0.0369
      4 C          -4.6403  -20.8892   20.1073 C.ar    1  UNL1        0.0028
      5 C          -6.0379  -20.6467   20.5949 C.ar    1  UNL1       -0.0040
      6 C          -6.2982  -19.5960   21.6333 C.ar    1  UNL1       -0.0178
      7 C          -5.1609  -18.7879   22.1841 C.ar    1  UNL1        0.0327
      8 O          -2.6260  -18.2222   22.2473 O.3     1  UNL1       -0.4755
      9 C          -2.1320  -17.0176   21.5024 C.3     1  UNL1        0.2054
     10 C          -1.0542  -17.1642   20.4696 C.3     1  UNL1        0.0473
     11 C          -2.7158  -17.2851   18.4760 C.3     1  UNL1        0.0001
     12 C          -1.3967  -17.6473   19.0914 C.3     1  UNL1        0.0038
     13 C          -8.0376  -18.0644   22.8074 C.3     1  UNL1        0.0737
     14 N          -8.2587  -16.8200   21.9994 N.3     1  UNL1       -0.2895
     15 H          -9.2572  -16.7745   21.7962 H       1  UNL1        0.1237
     16 C          -7.8693  -15.4837   22.5584 C.3     1  UNL1        0.1552
     17 C          -6.7556  -15.3848   23.5584 C.2     1  UNL1        0.2418
     18 O          -5.3408  -15.2125   23.0907 O.2     1  UNL1       -0.2734
     19 N          -7.0568  -15.4581   25.0260 N.am    1  UNL1       -0.2784
     20 C          -6.0528  -15.3745   26.1373 C.3     1  UNL1        0.0935
     21 C          -6.7903  -15.4927   27.4382 C.3     1  UNL1        0.0233
     22 C          -8.2501  -15.6492   27.1308 C.3     1  UNL1        0.0233
     23 C          -8.4148  -15.6279   25.6400 C.3     1  UNL1        0.0935
@<TRIPOS>BOND
     1    11    12    1
     2    12    10    1
     3    10     9    1
     4     9     8    1
     5     8     2    1
     6     2     3   ar
     7     3     4   ar
     8     4     5   ar
     9     5     6   ar
    10     6     1    1
    11     1    13    1
    12    13    14    1
    13    14    16    1
    14    16    17    1
    15    17    18    2
    16    17    19   am
    17    19    20    1
    18    20    21    1
    19    21    22    1
    20    22    23    1
    21     6     7   ar
    22     7     2   ar
    23    23    19    1
    24    14    15    1
@<TRIPOS>MOLECULE
*****
 23 24 0 0 0
SMALL
GASTEIGER

@<TRIPOS>ATOM
      1 C          -9.9685  -20.4177   24.0005 C.3     1  UNL1        0.0435
      2 C          -8.2641  -19.2344   20.6175 C.ar    1  UNL1        0.1382
      3 C          -9.4459  -19.2226   19.6937 C.ar    1  UNL1        0.0369
      4 C         -10.8018  -19.6092   20.2056 C.ar    1  UNL1        0.0028
      5 C         -10.9760  -20.0076   21.6411 C.ar    1  UNL1       -0.0040
      6 C          -9.7943  -20.0193   22.5649 C.ar    1  UNL1       -0.0178
      7 C          -8.4384  -19.6328   22.0531 C.ar    1  UNL1        0.0327
      8 O          -6.9082  -18.8478   20.1057 O.3     1  UNL1       -0.4755
      9 C          -5.6771  -19.2654   20.8539 C.3     1  UNL1        0.2054
     10 C          -4.6231  -20.0825   20.1672 C.3     1  UNL1        0.0473
     11 C          -2.8054  -18.4624   19.2607 C.3     1  UNL1        0.0001
     12 C          -3.2006  -19.6068   20.1463 C.3     1  UNL1        0.0038
     13 C         -10.4990  -19.4276   24.9946 C.3     1  UNL1        0.0737
     14 N          -9.5523  -18.5441   25.7516 N.3     1  UNL1       -0.2895
     15 H          -8.6230  -18.9519   25.6489 H       1  UNL1        0.1237
     16 C          -9.4305  -17.0930   25.3919 C.3     1  UNL1        0.1552
     17 C          -9.0188  -16.6961   24.0052 C.2     1  UNL1        0.2418
     18 O          -7.5666  -16.5120   23.6778 O.2     1  UNL1       -0.2734
     19 N         -10.0593  -16.4834   22.9458 N.am    1  UNL1       -0.2784
     20 C          -9.8003  -16.0870   21.5226 C.3     1  UNL1        0.0935
     21 C         -11.1224  -15.9883   20.8209 C.3     1  UNL1        0.0233
     22 C         -12.1986  -16.3238   21.8106 C.3     1  UNL1        0.0233
     23 C         -11.5415  -16.6298   23.1238 C.3     1  UNL1        0.0935
@<TRIPOS>BOND
     1    11    12    1
     2    12    10    1
     3    10     9    1
     4     9     8    1
     5     8     2    1
     6     2     3   ar
     7     3     4   ar
     8     4     5   ar
     9     5     6   ar
    10     6     1    1
    11     1    13    1
    12    13    14    1
    13    14    16    1
    14    16    17    1
    15    17    18    2
    16    17    19   am
    17    19    20    1
    18    20    21    1
    19    21    22    1
    20    22    23    1
    21     6     7   ar
    22     7     2   ar
    23    23    19    1
    24    14    15    1
@<TRIPOS>MOLECULE
*****
 23 24 0 0 0
SMALL
GASTEIGER

@<TRIPOS>ATOM
      1 C          -4.4545  -17.0162   24.2068 C.3     1  UNL1        0.0435
      2 C          -4.2123  -19.5970   21.2017 C.ar    1  UNL1        0.1382
      3 C          -2.7482  -19.5253   20.8838 C.ar    1  UNL1        0.0369
      4 C          -1.8528  -18.6173   21.6735 C.ar    1  UNL1        0.0028
      5 C          -2.4215  -17.7809   22.7812 C.ar    1  UNL1       -0.0040
      6 C          -3.8857  -17.8526   23.0991 C.ar    1  UNL1       -0.0178
      7 C          -4.7811  -18.7606   22.3093 C.ar    1  UNL1        0.0327
      8 O          -5.1077  -20.5050   20.4119 O.3     1  UNL1       -0.4755
      9 C          -6.5861  -20.5068   20.6655 C.3     1  UNL1        0.2054
     10 C          -7.4816  -19.5887   19.8876 C.3     1  UNL1        0.0473
     11 C         -10.0502  -19.4279   19.5321 C.3     1  UNL1        0.0001
     12 C          -8.8469  -19.2523   20.4102 C.3     1  UNL1        0.0038
     13 C          -5.1076  -15.7023   23.8950 C.3     1  UNL1        0.0737
     14 N          -6.5885  -15.5405   24.0706 N.3     1  UNL1       -0.2895
     15 H          -6.8213  -14.5989   23.7552 H       1  UNL1        0.1237
     16 C          -7.5328  -16.4758   23.3753 C.3     1  UNL1        0.1552
     17 C          -8.4544  -15.9572   22.3115 C.2     1  UNL1        0.2418
     18 O          -7.9464  -14.9863   21.2872 O.2     1  UNL1       -0.2734
     19 N          -9.8841  -16.4096   22.2720 N.am    1  UNL1       -0.2784
     20 C         -10.9176  -15.9798   21.2734 C.3     1  UNL1        0.0935
     21 C         -12.2034  -16.6757   21.6083 C.3     1  UNL1        0.0233
     22 C         -11.9646  -17.5358   22.8140 C.3     1  UNL1        0.0233
     23 C         -10.5312  -17.3713   23.2241 C.3     1  UNL1        0.0935
@<TRIPOS>BOND
     1    11    12    1
     2    12    10    1
     3    10     9    1
     4     9     8    1
     5     8     2    1
     6     2     3   ar
     7     3     4   ar
     8     4     5   ar
     9     5     6   ar
    10     6     1    1
    11     1    13    1
    12    13    14    1
    13    14    16    1
    14    16    17    1
    15    17    18    2
    16    17    19   am
    17    19    20    1
    18    20    21    1
    19    21    22    1
    20    22    23    1
    21     6     7   ar
    22     7     2   ar
    23    23    19    1
    24    14    15    1
@<TRIPOS>MOLECULE
*****
 23 24 0 0 0
SMALL
GASTEIGER

@<TRIPOS>ATOM
      1 C         -11.0388  -19.6129   22.5093 C.3     1  UNL1        0.0435
      2 C          -7.1784  -19.7917   21.6063 C.ar    1  UNL1        0.1382
      3 C          -7.2276  -19.6221   20.1168 C.ar    1  UNL1        0.0369
      4 C          -8.5471  -19.4494   19.4248 C.ar    1  UNL1        0.0028
      5 C          -9.8175  -19.4463   20.2222 C.ar    1  UNL1       -0.0040
      6 C          -9.7684  -19.6160   21.7118 C.ar    1  UNL1       -0.0178
      7 C          -8.4488  -19.7887   22.4038 C.ar    1  UNL1        0.0327
      8 O          -5.8589  -19.9644   22.2984 O.3     1  UNL1       -0.4755
      9 C          -4.8038  -18.9053   22.1765 C.3     1  UNL1        0.2054
     10 C          -3.3569  -19.2934   22.0987 C.3     1  UNL1        0.0473
     11 C          -3.5518  -19.5995   19.5260 C.3     1  UNL1        0.0001
     12 C          -2.7084  -19.5066   20.7630 C.3     1  UNL1        0.0038
     13 C         -11.4824  -18.3623   23.2087 C.3     1  UNL1        0.0737
     14 N         -10.5019  -17.5692   24.0210 N.3     1  UNL1       -0.2895
     15 H          -9.7092  -18.1835   24.2076 H       1  UNL1        0.1237
     16 C          -9.9394  -16.2893   23.4776 C.3     1  UNL1        0.1552
     17 C          -8.4652  -16.1628   23.2315 C.2     1  UNL1        0.2418
     18 O          -7.9221  -16.3039   21.8404 O.2     1  UNL1       -0.2734
     19 N          -7.5339  -15.8951   24.3766 N.am    1  UNL1       -0.2784
     20 C          -6.0443  -15.7446   24.2850 C.3     1  UNL1        0.0935
     21 C          -5.5186  -15.4874   25.6661 C.3     1  UNL1        0.0233
     22 C          -6.6833  -15.4790   26.6114 C.3     1  UNL1        0.0233
     23 C          -7.9288  -15.7310   25.8144 C.3     1  UNL1        0.0935
@<TRIPOS>BOND
     1    11    12    1
     2    12    10    1
     3    10     9    1
     4     9     8    1
     5     8     2    1
     6     2     3   ar
     7     3     4   ar
     8     4     5   ar
     9     5     6   ar
    10     6     1    1
    11     1    13    1
    12    13    14    1
    13    14    16    1
    14    16    17    1
    15    17    18    2
    16    17    19   am
    17    19    20    1
    18    20    21    1
    19    21    22    1
    20    22    23    1
    21     6     7   ar
    22     7     2   ar
    23    23    19    1
    24    14    15    1
@<TRIPOS>MOLECULE
*****
 23 24 0 0 0
SMALL
GASTEIGER

@<TRIPOS>ATOM
      1 C          -4.7778  -20.6148   20.2944 C.3     1  UNL1        0.0435
      2 C          -3.8357  -17.8029   22.9318 C.ar    1  UNL1        0.1382
      3 C          -2.4400  -17.4645   22.4990 C.ar    1  UNL1        0.0369
      4 C          -1.8235  -18.1762   21.3313 C.ar    1  UNL1        0.0028
      5 C          -2.6027  -19.2262   20.5965 C.ar    1  UNL1       -0.0040
      6 C          -3.9984  -19.5647   21.0293 C.ar    1  UNL1       -0.0178
      7 C          -4.6149  -18.8530   22.1970 C.ar    1  UNL1        0.0327
      8 O          -4.4522  -17.0913   24.0995 O.3     1  UNL1       -0.4755
      9 C          -5.0961  -15.7505   23.9058 C.3     1  UNL1        0.2054
     10 C          -6.0480  -15.2197   24.9365 C.3     1  UNL1        0.0473
     11 C          -7.0134  -15.8394   27.2675 C.3     1  UNL1        0.0001
     12 C          -5.8370  -15.5383   26.3870 C.3     1  UNL1        0.0038
     13 C          -6.2678  -20.6890   20.4497 C.3     1  UNL1        0.0737
     14 N          -7.1126  -19.4827   20.1643 N.3     1  UNL1       -0.2895
     15 H          -7.3321  -19.5058   19.1685 H       1  UNL1        0.1237
     16 C          -8.4112  -19.2880   20.8894 C.3     1  UNL1        0.1552
     17 C          -8.7904  -17.9282   21.3964 C.2     1  UNL1        0.2418
     18 O          -7.7269  -16.9065   21.6708 O.2     1  UNL1       -0.2734
     19 N         -10.2332  -17.5899   21.6290 N.am    1  UNL1       -0.2784
     20 C         -10.7616  -16.2788   22.1307 C.3     1  UNL1        0.0935
     21 C         -12.2558  -16.3820   22.2126 C.3     1  UNL1        0.0233
     22 C         -12.6509  -17.7570   21.7614 C.3     1  UNL1        0.0233
     23 C         -11.4008  -18.5035   21.4008 C.3     1  UNL1        0.0935
@<TRIPOS>BOND
     1    11    12    1
     2    12    10    1
     3    10     9    1
     4     9     8    1
     5     8     2    1
     6     2     3   ar
     7     3     4   ar
     8     4     5   ar
     9     5     6   ar
    10     6     1    1
    11     1    13    1
    12    13    14    1
    13    14    16    1
    14    16    17    1
    15    17    18    2
    16    17    19   am
    17    19    20    1
    18    20    21    1
    19    21    22    1
    20    22    23    1
    21     6     7   ar
    22     7     2   ar
    23    23    19    1
    24    14    15    1
@<TRIPOS>MOLECULE
*****
 23 24 0 0 0
SMALL
GASTEIGER

@<TRIPOS>ATOM
      1 C          -5.0553  -15.7906   24.0990 C.3     1  UNL1        0.0435
      2 C          -8.6478  -16.7201   22.6917 C.ar    1  UNL1        0.1382
      3 C          -9.5137  -16.3524   23.8600 C.ar    1  UNL1        0.0369
      4 C          -8.8935  -15.7975   25.1080 C.ar    1  UNL1        0.0028
      5 C          -7.4074  -15.6102   25.1876 C.ar    1  UNL1       -0.0040
      6 C          -6.5415  -15.9779   24.0194 C.ar    1  UNL1       -0.0178
      7 C          -7.1617  -16.5329   22.7714 C.ar    1  UNL1        0.0327
      8 O          -9.2680  -17.2751   21.4438 O.3     1  UNL1       -0.4755
      9 C         -10.3782  -18.2791   21.5405 C.3     1  UNL1        0.2054
     10 C         -11.6671  -18.0447   20.8101 C.3     1  UNL1        0.0473
     11 C         -12.9064  -17.7463   23.0740 C.3     1  UNL1        0.0001
     12 C         -12.9102  -17.6981   21.5748 C.3     1  UNL1        0.0038
     13 C          -4.1414  -16.7206   23.3574 C.3     1  UNL1        0.0737
     14 N          -4.0954  -18.1752   23.7211 N.3     1  UNL1       -0.2895
     15 H          -4.8628  -18.3402   24.3725 H       1  UNL1        0.1237
     16 C          -4.2043  -19.2198   22.6502 C.3     1  UNL1        0.1552
     17 C          -4.3048  -18.8104   21.2106 C.2     1  UNL1        0.2418
     18 O          -5.6465  -18.7360   20.5440 O.2     1  UNL1       -0.2734
     19 N          -3.0637  -18.4754   20.4377 N.am    1  UNL1       -0.2784
     20 C          -3.0078  -18.0525   18.9996 C.3     1  UNL1        0.0935
     21 C          -1.5701  -17.8202   18.6403 C.3     1  UNL1        0.0233
     22 C          -0.7374  -18.0995   19.8563 C.3     1  UNL1        0.0233
     23 C          -1.6605  -18.5044   20.9671 C.3     1  UNL1        0.0935
@<TRIPOS>BOND
     1    11    12    1
     2    12    10    1
     3    10     9    1
     4     9     8    1
     5     8     2    1
     6     2     3   ar
     7     3     4   ar
     8     4     5   ar
     9     5     6   ar
    10     6     1    1
    11     1    13    1
    12    13    14    1
    13    14    16    1
    14    16    17    1
    15    17    18    2
    16    17    19   am
    17    19    20    1
    18    20    21    1
    19    21    22    1
    20    22    23    1
    21     6     7   ar
    22     7     2   ar
    23    23    19    1
    24    14    15    1
@<TRIPOS>MOLECULE
*****
 23 24 0 0 0
SMALL
GASTEIGER

@<TRIPOS>ATOM
      1 C          -8.8442  -19.5631   19.6810 C.3     1  UNL1        0.0435
      2 C         -10.3294  -17.0444   22.3645 C.ar    1  UNL1        0.1382
      3 C         -11.5969  -16.6201   21.6839 C.ar    1  UNL1        0.0369
      4 C         -11.9468  -17.1767   20.3356 C.ar    1  UNL1        0.0028
      5 C         -11.0293  -18.1577   19.6680 C.ar    1  UNL1       -0.0040
      6 C          -9.7618  -18.5820   20.3487 C.ar    1  UNL1       -0.0178
      7 C          -9.4118  -18.0254   21.6969 C.ar    1  UNL1        0.0327
      8 O          -9.9794  -16.4878   23.7127 O.3     1  UNL1       -0.4755
      9 C          -9.1552  -17.2989   24.6680 C.3     1  UNL1        0.2054
     10 C          -9.8100  -18.3401   25.5266 C.3     1  UNL1        0.0473
     11 C          -9.4807  -20.5556   24.2100 C.3     1  UNL1        0.0001
     12 C         -10.3836  -19.5765   24.9001 C.3     1  UNL1        0.0038
     13 C          -7.3578  -19.3992   19.7981 C.3     1  UNL1        0.0737
     14 N          -6.5469  -20.4193   20.5411 N.3     1  UNL1       -0.2895
     15 H          -6.8831  -21.3355   20.2446 H       1  UNL1        0.1237
     16 C          -5.0539  -20.4391   20.3987 C.3     1  UNL1        0.1552
     17 C          -4.2047  -19.5734   21.2816 C.2     1  UNL1        0.2418
     18 O          -4.4442  -19.5492   22.7622 O.2     1  UNL1       -0.2734
     19 N          -3.1161  -18.7320   20.6840 N.am    1  UNL1       -0.2784
     20 C          -2.1915  -17.8218   21.4367 C.3     1  UNL1        0.0935
     21 C          -1.2650  -17.1804   20.4467 C.3     1  UNL1        0.0233
     22 C          -1.6170  -17.6942   19.0821 C.3     1  UNL1        0.0233
     23 C          -2.7611  -18.6532   19.2288 C.3     1  UNL1        0.0935
@<TRIPOS>BOND
     1    11    12    1
     2    12    10    1
     3    10     9    1
     4     9     8    1
     5     8     2    1
     6     2     3   ar
     7     3     4   ar
     8     4     5   ar
     9     5     6   ar
    10     6     1    1
    11     1    13    1
    12    13    14    1
    13    14    16    1
    14    16    17    1
    15    17    18    2
    16    17    19   am
    17    19    20    1
    18    20    21    1
    19    21    22    1
    20    22    23    1
    21     6     7   ar
    22     7     2   ar
    23    23    19    1
    24    14    15    1
@<TRIPOS>MOLECULE
*****
 23 24 0 0 0
SMALL
GASTEIGER

@<TRIPOS>ATOM
      1 C          -9.5837  -16.0974   24.1428 C.3     1  UNL1        0.0435
      2 C          -5.6286  -15.8184   24.3151 C.ar    1  UNL1        0.1382
      3 C          -5.4268  -15.5507   25.7771 C.ar    1  UNL1        0.0369
      4 C          -6.6105  -15.4652   26.6944 C.ar    1  UNL1        0.0028
      5 C          -7.9961  -15.6474   26.1496 C.ar    1  UNL1       -0.0040
      6 C          -8.1980  -15.9152   24.6876 C.ar    1  UNL1       -0.0178
      7 C          -7.0143  -16.0006   23.7703 C.ar    1  UNL1        0.0327
      8 O          -4.4449  -15.9039   23.3978 O.3     1  UNL1       -0.4755
      9 C          -3.8642  -17.2412   23.0452 C.3     1  UNL1        0.2054
     10 C          -2.4692  -17.3335   22.5018 C.3     1  UNL1        0.0473
     11 C          -0.9823  -17.1658   20.3779 C.3     1  UNL1        0.0001
     12 C          -2.1211  -16.6552   21.2100 C.3     1  UNL1        0.0038
     13 C         -10.1434  -17.4774   23.9631 C.3     1  UNL1        0.0737
     14 N          -9.2481  -18.6734   24.0982 N.3     1  UNL1       -0.2895
     15 H          -9.6408  -19.2528   24.8402 H       1  UNL1        0.1237
     16 C          -9.0175  -19.5744   22.9214 C.3     1  UNL1        0.1552
     17 C          -8.4535  -19.0161   21.6486 C.2     1  UNL1        0.2418
     18 O          -9.3050  -18.1518   20.7665 O.2     1  UNL1       -0.2734
     19 N          -7.0379  -19.3220   21.2578 N.am    1  UNL1       -0.2784
     20 C          -6.3401  -18.8373   20.0216 C.3     1  UNL1        0.0935
     21 C          -4.9426  -19.3821   20.0344 C.3     1  UNL1        0.0233
     22 C          -4.7767  -20.2034   21.2786 C.3     1  UNL1        0.0233
     23 C          -6.0716  -20.1663   22.0347 C.3     1  UNL1        0.0935
@<TRIPOS>BOND
     1    11    12    1
     2    12    10    1
     3    10     9    1
     4     9     8    1
     5     8     2    1
     6     2     3   ar
     7     3     4   ar
     8     4     5   ar
     9     5     6   ar
    10     6     1    1
    11     1    13    1
    12    13    14    1
    13    14    16    1
    14    16    17    1
    15    17    18    2
    16    17    19   am
    17    19    20    1
    18    20    21    1
    19    21    22    1
    20    22    23    1
    21     6     7   ar
    22     7     2   ar
    23    23    19    1
    24    14    15    1
@<TRIPOS>MOLECULE
*****
 23 24 0 0 0
SMALL
GASTEIGER

@<TRIPOS>ATOM
      1 C          -9.3641  -16.6321   24.5340 C.3     1  UNL1        0.0435
      2 C          -5.4865  -15.8147   24.3185 C.ar    1  UNL1        0.1382
      3 C          -5.2338  -15.2740   25.6946 C.ar    1  UNL1        0.0369
      4 C          -6.3579  -15.1860   26.6839 C.ar    1  UNL1        0.0028
      5 C          -7.7346  -15.6387   26.2971 C.ar    1  UNL1       -0.0040
      6 C          -7.9873  -16.1793   24.9209 C.ar    1  UNL1       -0.0178
      7 C          -6.8632  -16.2673   23.9316 C.ar    1  UNL1        0.0327
      8 O          -4.3624  -15.9026   23.3292 O.3     1  UNL1       -0.4755
      9 C          -3.7714  -17.2369   22.9822 C.3     1  UNL1        0.2054
     10 C          -2.3575  -17.3256   22.4892 C.3     1  UNL1        0.0473
     11 C          -0.9762  -16.9782   20.3163 C.3     1  UNL1        0.0001
     12 C          -1.8962  -16.4385   21.3709 C.3     1  UNL1        0.0038
     13 C          -9.9119  -17.9174   25.0796 C.3     1  UNL1        0.0737
     14 N          -9.9775  -19.1353   24.2064 N.3     1  UNL1       -0.2895
     15 H          -9.7270  -19.9317   24.7924 H       1  UNL1        0.1237
     16 C         -11.2590  -19.4935   23.5140 C.3     1  UNL1        0.1552
     17 C         -12.1778  -18.4112   23.0299 C.2     1  UNL1        0.2418
     18 O         -13.4254  -18.0877   23.7973 O.2     1  UNL1       -0.2734
     19 N         -11.8490  -17.6523   21.7785 N.am    1  UNL1       -0.2784
     20 C         -12.6676  -16.5496   21.1752 C.3     1  UNL1        0.0935
     21 C         -11.9684  -16.0787   19.9345 C.3     1  UNL1        0.0233
     22 C         -10.7176  -16.8904   19.7709 C.3     1  UNL1        0.0233
     23 C         -10.6438  -17.8629   20.9106 C.3     1  UNL1        0.0935
@<TRIPOS>BOND
     1    11    12    1
     2    12    10    1
     3    10     9    1
     4     9     8    1
     5     8     2    1
     6     2     3   ar
     7     3     4   ar
     8     4     5   ar
     9     5     6   ar
    10     6     1    1
    11     1    13    1
    12    13    14    1
    13    14    16    1
    14    16    17    1
    15    17    18    2
    16    17    19   am
    17    19    20    1
    18    20    21    1
    19    21    22    1
    20    22    23    1
    21     6     7   ar
    22     7     2   ar
    23    23    19    1
    24    14    15    1
