@<TRIPOS>MOLECULE
*****
 40 45 0 0 0
SMALL
GASTEIGER

@<TRIPOS>ATOM
      1 N           7.1840   -3.9998   23.5702 N.3     1  UNL1       -0.2641
      2 C           7.6780   -5.2414   24.2516 C.3     1  UNL1        0.0981
      3 C           8.3560   -6.3156   23.4539 C.3     1  UNL1        0.0224
      4 C           8.8500   -7.5571   24.1354 C.3     1  UNL1        0.0065
      5 C           8.6660   -7.7246   25.6146 C.3     1  UNL1        0.0277
      6 C           7.9880   -6.6504   26.4123 C.ar    1  UNL1       -0.0073
      7 C           7.8040   -6.8178   27.8916 C.ar    1  UNL1       -0.0015
      8 C           7.1259   -5.7436   28.6893 C.ar    1  UNL1        0.0203
      9 C           6.6319   -4.5021   28.0078 C.ar    1  UNL1        0.0985
     10 N           6.8159   -4.3346   26.5286 N.ar    1  UNL1       -0.2471
     11 C           7.4940   -5.4088   25.7308 C.ar    1  UNL1        0.0695
     12 C           8.1202   -2.8526   23.3306 C.3     1  UNL1        0.0994
     13 C           7.8662   -0.5028   19.5013 C.ar    1  UNL1       -0.0064
     14 C           8.5060   -1.8596   19.5077 C.ar    1  UNL1       -0.0032
     15 C           8.5907   -2.6428   20.7841 C.ar    1  UNL1       -0.0032
     16 C           8.0355   -2.0694   22.0542 C.ar    1  UNL1       -0.0062
     17 C           7.3958   -0.7127   22.0478 C.ar    1  UNL1       -0.0032
     18 C           7.3111    0.0706   20.7714 C.ar    1  UNL1       -0.0032
     19 C           7.7815    0.2805   18.2249 C.3     1  UNL1        0.0959
     20 N           6.8986   -0.1960   17.1097 N.3     1  UNL1       -0.2900
     21 H           7.0576    0.4300   16.3203 H       1  UNL1        0.1239
     22 C           5.4139   -0.2728   17.3092 C.3     1  UNL1        0.0974
     23 C           4.8976   -3.9592   18.6855 C.ar    1  UNL1        0.0204
     24 C           3.6094   -3.8030   19.4379 C.ar    1  UNL1        0.0989
     25 N           2.9227   -2.4701   19.4807 N.ar    1  UNL1       -0.2426
     26 C           3.5242   -1.2934   18.7712 C.ar    1  UNL1        0.0959
     27 C           4.8124   -1.4495   18.0188 C.ar    1  UNL1        0.0128
     28 C           5.4991   -2.7824   17.9760 C.ar    1  UNL1        0.0002
     29 C           5.7537   -3.9054   23.1282 C.3     1  UNL1        0.0888
     30 C           4.8913   -2.7783   23.6143 C.3     1  UNL1        0.0748
     31 C           4.0570   -1.9990   22.6415 C.3     1  UNL1        0.0432
     32 C           3.1946   -0.8719   23.1275 C.ar    1  UNL1       -0.0234
     33 C           2.3603   -0.0925   22.1547 C.ar    1  UNL1       -0.0045
     34 C           1.4980    1.0344   22.6408 C.ar    1  UNL1       -0.0003
     35 C           1.4700    1.3820   24.0997 C.ar    1  UNL1       -0.0003
     36 C           2.3044    0.6026   25.0725 C.ar    1  UNL1       -0.0032
     37 C           3.1667   -0.5243   24.5864 C.ar    1  UNL1       -0.0103
     38 C           4.0010   -1.3038   25.5593 C.3     1  UNL1        0.0953
     39 N           4.8634   -2.4307   25.0732 N.3     1  UNL1       -0.2934
     40 H           4.5604   -3.2686   25.5697 H       1  UNL1        0.1236
@<TRIPOS>BOND
     1    23    24   ar
     2    24    25   ar
     3    25    26   ar
     4    26    27   ar
     5    27    22    1
     6    22    20    1
     7    20    19    1
     8    19    13    1
     9    13    14   ar
    10    14    15   ar
    11    15    16   ar
    12    16    12    1
    13    12     1    1
    14     1    29    1
    15    30    29    1
    16    30    31    1
    17    31    32    1
    18    32    33   ar
    19    33    34   ar
    20    34    35   ar
    21    35    36   ar
    22    36    37   ar
    23    37    38    1
    24    38    39    1
    25     2     1    1
    26     2     3    1
    27     3     4    1
    28     4     5    1
    29     5     6    1
    30     6     7   ar
    31     7     8   ar
    32     8     9   ar
    33     9    10   ar
    34    10    11   ar
    35    16    17   ar
    36    17    18   ar
    37    27    28   ar
    38    28    23   ar
    39    18    13   ar
    40    39    30    1
    41    11     2    1
    42    37    32   ar
    43    11     6   ar
    44    20    21    1
    45    39    40    1
@<TRIPOS>MOLECULE
*****
 40 45 0 0 0
SMALL
GASTEIGER

@<TRIPOS>ATOM
      1 N          -0.3418    2.4508   20.4263 N.3     1  UNL1       -0.2641
      2 C          -1.1956    3.2011   19.4474 C.3     1  UNL1        0.0981
      3 C          -0.5947    3.7286   18.1783 C.3     1  UNL1        0.0224
      4 C          -1.4485    4.4789   17.1995 C.3     1  UNL1        0.0065
      5 C          -2.9031    4.7017   17.4897 C.3     1  UNL1        0.0277
      6 C          -3.5040    4.1742   18.7588 C.ar    1  UNL1       -0.0073
      7 C          -4.9587    4.3970   19.0491 C.ar    1  UNL1       -0.0015
      8 C          -5.5596    3.8696   20.3182 C.ar    1  UNL1        0.0203
      9 C          -4.7059    3.1193   21.2970 C.ar    1  UNL1        0.0985
     10 N          -3.2512    2.8964   21.0068 N.ar    1  UNL1       -0.2471
     11 C          -2.6503    3.4239   19.7377 C.ar    1  UNL1        0.0695
     12 C          -0.1647    0.9681   20.2845 C.3     1  UNL1        0.0994
     13 C           3.7442   -0.6996   18.8048 C.ar    1  UNL1       -0.0064
     14 C           2.8454    0.0502   17.8665 C.ar    1  UNL1       -0.0032
     15 C           1.5425    0.6060   18.3598 C.ar    1  UNL1       -0.0032
     16 C           1.1383    0.4122   19.7913 C.ar    1  UNL1       -0.0062
     17 C           2.0370   -0.3375   20.7294 C.ar    1  UNL1       -0.0032
     18 C           3.3400   -0.8934   20.2362 C.ar    1  UNL1       -0.0032
     19 C           5.0472   -1.2554   18.3115 C.3     1  UNL1        0.0959
     20 N           5.1192   -2.6687   17.8139 N.3     1  UNL1       -0.2900
     21 H           4.4553   -2.7438   17.0432 H       1  UNL1        0.1239
     22 C           4.8309   -3.8078   18.7463 C.3     1  UNL1        0.0974
     23 C           5.0983   -3.8641   22.7055 C.ar    1  UNL1        0.0204
     24 C           6.5864   -3.8233   22.8898 C.ar    1  UNL1        0.0989
     25 N           7.4894   -3.7773   21.6928 N.ar    1  UNL1       -0.2426
     26 C           6.9042   -3.7721   20.3117 C.ar    1  UNL1        0.0959
     27 C           5.4161   -3.8129   20.1274 C.ar    1  UNL1        0.0128
     28 C           4.5132   -3.8589   21.3243 C.ar    1  UNL1        0.0002
     29 C           0.3347    3.1832   21.5469 C.3     1  UNL1        0.0888
     30 C          -0.0973    2.9497   22.9643 C.3     1  UNL1        0.0748
     31 C           0.7860    2.1793   23.9003 C.3     1  UNL1        0.0432
     32 C           0.3541    1.9458   25.3177 C.ar    1  UNL1       -0.0234
     33 C           1.2374    1.1754   26.2537 C.ar    1  UNL1       -0.0045
     34 C           0.8054    0.9419   27.6710 C.ar    1  UNL1       -0.0003
     35 C          -0.5100    1.4788   28.1523 C.ar    1  UNL1       -0.0003
     36 C          -1.3933    2.2492   27.2163 C.ar    1  UNL1       -0.0032
     37 C          -0.9613    2.4827   25.7990 C.ar    1  UNL1       -0.0103
     38 C          -1.8446    3.2531   24.8629 C.3     1  UNL1        0.0953
     39 N          -1.4126    3.4866   23.4455 N.3     1  UNL1       -0.2934
     40 H          -1.3861    4.4970   23.3085 H       1  UNL1        0.1236
@<TRIPOS>BOND
     1    23    24   ar
     2    24    25   ar
     3    25    26   ar
     4    26    27   ar
     5    27    22    1
     6    22    20    1
     7    20    19    1
     8    19    13    1
     9    13    14   ar
    10    14    15   ar
    11    15    16   ar
    12    16    12    1
    13    12     1    1
    14     1    29    1
    15    30    29    1
    16    30    31    1
    17    31    32    1
    18    32    33   ar
    19    33    34   ar
    20    34    35   ar
    21    35    36   ar
    22    36    37   ar
    23    37    38    1
    24    38    39    1
    25     2     1    1
    26     2     3    1
    27     3     4    1
    28     4     5    1
    29     5     6    1
    30     6     7   ar
    31     7     8   ar
    32     8     9   ar
    33     9    10   ar
    34    10    11   ar
    35    16    17   ar
    36    17    18   ar
    37    27    28   ar
    38    28    23   ar
    39    18    13   ar
    40    39    30    1
    41    11     2    1
    42    37    32   ar
    43    11     6   ar
    44    20    21    1
    45    39    40    1
@<TRIPOS>MOLECULE
*****
 40 45 0 0 0
SMALL
GASTEIGER

@<TRIPOS>ATOM
      1 N           0.0652    2.2750   20.4982 N.3     1  UNL1       -0.2641
      2 C          -0.6543    3.0974   19.4706 C.3     1  UNL1        0.0981
      3 C           0.0886    3.6284   18.2806 C.3     1  UNL1        0.0224
      4 C          -0.6309    4.4508   17.2530 C.3     1  UNL1        0.0065
      5 C          -2.0933    4.7423   17.4154 C.3     1  UNL1        0.0277
      6 C          -2.8362    4.2113   18.6054 C.ar    1  UNL1       -0.0073
      7 C          -4.2987    4.5027   18.7678 C.ar    1  UNL1       -0.0015
      8 C          -5.0416    3.9718   19.9578 C.ar    1  UNL1        0.0203
      9 C          -4.3221    3.1493   20.9854 C.ar    1  UNL1        0.0985
     10 N          -2.8597    2.8579   20.8230 N.ar    1  UNL1       -0.2471
     11 C          -2.1167    3.3889   19.6330 C.ar    1  UNL1        0.0695
     12 C           0.7336    2.9455   21.6616 C.3     1  UNL1        0.0994
     13 C          -0.2960    1.7122   25.8650 C.ar    1  UNL1       -0.0064
     14 C           0.8783    1.0917   25.1676 C.ar    1  UNL1       -0.0032
     15 C           1.2215    1.5028   23.7665 C.ar    1  UNL1       -0.0032
     16 C           0.3904    2.5344   23.0627 C.ar    1  UNL1       -0.0062
     17 C          -0.7838    3.1548   23.7600 C.ar    1  UNL1       -0.0032
     18 C          -1.1270    2.7437   25.1612 C.ar    1  UNL1       -0.0032
     19 C          -0.6392    1.3010   27.2661 C.3     1  UNL1        0.0959
     20 N          -0.2064   -0.0395   27.7817 N.3     1  UNL1       -0.2900
     21 H          -1.0415   -0.6239   27.8201 H       1  UNL1        0.1239
     22 C           0.4602   -0.1483   29.1211 C.3     1  UNL1        0.0974
     23 C           4.1997   -0.9178   28.0376 C.ar    1  UNL1        0.0204
     24 C           4.8687   -1.0137   29.3767 C.ar    1  UNL1        0.0989
     25 N           4.0683   -0.8211   30.6306 N.ar    1  UNL1       -0.2426
     26 C           2.5988   -0.5327   30.5454 C.ar    1  UNL1        0.0959
     27 C           1.9297   -0.4368   29.2063 C.ar    1  UNL1        0.0128
     28 C           2.7301   -0.6294   27.9524 C.ar    1  UNL1        0.0002
     29 C           0.1162    0.7821   20.3624 C.3     1  UNL1        0.0888
     30 C           1.3071    0.1269   19.7277 C.3     1  UNL1        0.0748
     31 C           1.9980   -1.0083   20.4233 C.3     1  UNL1        0.0432
     32 C           3.1888   -1.6635   19.7887 C.ar    1  UNL1       -0.0234
     33 C           3.8797   -2.7987   20.4843 C.ar    1  UNL1       -0.0045
     34 C           5.0705   -3.4537   19.8497 C.ar    1  UNL1       -0.0003
     35 C           5.5705   -2.9736   18.5195 C.ar    1  UNL1       -0.0003
     36 C           4.8796   -1.8384   17.8239 C.ar    1  UNL1       -0.0032
     37 C           3.6888   -1.1833   18.4585 C.ar    1  UNL1       -0.0103
     38 C           2.9978   -0.0480   17.7629 C.3     1  UNL1        0.0953
     39 N           1.8070    0.6071   18.3975 N.3     1  UNL1       -0.2934
     40 H           1.0331    0.5113   17.7401 H       1  UNL1        0.1236
@<TRIPOS>BOND
     1    23    24   ar
     2    24    25   ar
     3    25    26   ar
     4    26    27   ar
     5    27    22    1
     6    22    20    1
     7    20    19    1
     8    19    13    1
     9    13    14   ar
    10    14    15   ar
    11    15    16   ar
    12    16    12    1
    13    12     1    1
    14     1    29    1
    15    30    29    1
    16    30    31    1
    17    31    32    1
    18    32    33   ar
    19    33    34   ar
    20    34    35   ar
    21    35    36   ar
    22    36    37   ar
    23    37    38    1
    24    38    39    1
    25     2     1    1
    26     2     3    1
    27     3     4    1
    28     4     5    1
    29     5     6    1
    30     6     7   ar
    31     7     8   ar
    32     8     9   ar
    33     9    10   ar
    34    10    11   ar
    35    16    17   ar
    36    17    18   ar
    37    27    28   ar
    38    28    23   ar
    39    18    13   ar
    40    39    30    1
    41    11     2    1
    42    37    32   ar
    43    11     6   ar
    44    20    21    1
    45    39    40    1
@<TRIPOS>MOLECULE
*****
 40 45 0 0 0
SMALL
GASTEIGER

@<TRIPOS>ATOM
      1 N           0.0597    2.3838   20.3407 N.3     1  UNL1       -0.2641
      2 C          -0.7407    3.2131   19.3807 C.3     1  UNL1        0.0981
      3 C          -0.0838    3.7963   18.1649 C.3     1  UNL1        0.0224
      4 C          -0.8842    4.6255   17.2048 C.3     1  UNL1        0.0065
      5 C          -2.3416    4.8716   17.4606 C.3     1  UNL1        0.0277
      6 C          -2.9986    4.2884   18.6764 C.ar    1  UNL1       -0.0073
      7 C          -4.4560    4.5344   18.9323 C.ar    1  UNL1       -0.0015
      8 C          -5.1129    3.9512   20.1481 C.ar    1  UNL1        0.0203
      9 C          -4.3125    3.1220   21.1082 C.ar    1  UNL1        0.0985
     10 N          -2.8551    2.8759   20.8524 N.ar    1  UNL1       -0.2471
     11 C          -2.1981    3.4591   19.6365 C.ar    1  UNL1        0.0695
     12 C           0.7729    3.0406   21.4852 C.3     1  UNL1        0.0994
     13 C           3.1592    0.5508   24.3759 C.ar    1  UNL1       -0.0064
     14 C           3.8554    1.2979   23.2772 C.ar    1  UNL1       -0.0032
     15 C           3.0600    2.1279   22.3137 C.ar    1  UNL1       -0.0032
     16 C           1.5683    2.2107   22.4488 C.ar    1  UNL1       -0.0062
     17 C           0.8722    1.4635   23.5475 C.ar    1  UNL1       -0.0032
     18 C           1.6676    0.6336   24.5110 C.ar    1  UNL1       -0.0032
     19 C           3.9546   -0.2792   25.3395 C.3     1  UNL1        0.0959
     20 N           4.2295   -1.7225   25.0370 N.3     1  UNL1       -0.2900
     21 H           5.1907   -1.9058   25.3250 H       1  UNL1        0.1239
     22 C           4.0931   -2.2337   23.6334 C.3     1  UNL1        0.0974
     23 C           7.2370   -1.7836   21.2536 C.ar    1  UNL1        0.0204
     24 C           7.7687   -3.1858   21.2182 C.ar    1  UNL1        0.0989
     25 N           7.0752   -4.2706   21.9880 N.ar    1  UNL1       -0.2426
     26 C           5.8500   -3.9532   22.7930 C.ar    1  UNL1        0.0959
     27 C           5.3183   -2.5511   22.8284 C.ar    1  UNL1        0.0128
     28 C           6.0117   -1.4663   22.0587 C.ar    1  UNL1        0.0002
     29 C           0.1469    0.8978   20.1562 C.3     1  UNL1        0.0888
     30 C           1.3867    0.2858   19.5744 C.3     1  UNL1        0.0748
     31 C           1.7952   -1.1020   19.9710 C.3     1  UNL1        0.0432
     32 C           3.0349   -1.7140   19.3891 C.ar    1  UNL1       -0.0234
     33 C           3.4434   -3.1018   19.7857 C.ar    1  UNL1       -0.0045
     34 C           4.6831   -3.7137   19.2039 C.ar    1  UNL1       -0.0003
     35 C           5.5144   -2.9380   18.2255 C.ar    1  UNL1       -0.0003
     36 C           5.1059   -1.5502   17.8290 C.ar    1  UNL1       -0.0032
     37 C           3.8662   -0.9383   18.4108 C.ar    1  UNL1       -0.0103
     38 C           3.4577    0.4496   18.0143 C.3     1  UNL1        0.0953
     39 N           2.2180    1.0615   18.5961 N.3     1  UNL1       -0.2934
     40 H           1.6088    1.2947   17.8119 H       1  UNL1        0.1236
@<TRIPOS>BOND
     1    23    24   ar
     2    24    25   ar
     3    25    26   ar
     4    26    27   ar
     5    27    22    1
     6    22    20    1
     7    20    19    1
     8    19    13    1
     9    13    14   ar
    10    14    15   ar
    11    15    16   ar
    12    16    12    1
    13    12     1    1
    14     1    29    1
    15    30    29    1
    16    30    31    1
    17    31    32    1
    18    32    33   ar
    19    33    34   ar
    20    34    35   ar
    21    35    36   ar
    22    36    37   ar
    23    37    38    1
    24    38    39    1
    25     2     1    1
    26     2     3    1
    27     3     4    1
    28     4     5    1
    29     5     6    1
    30     6     7   ar
    31     7     8   ar
    32     8     9   ar
    33     9    10   ar
    34    10    11   ar
    35    16    17   ar
    36    17    18   ar
    37    27    28   ar
    38    28    23   ar
    39    18    13   ar
    40    39    30    1
    41    11     2    1
    42    37    32   ar
    43    11     6   ar
    44    20    21    1
    45    39    40    1
@<TRIPOS>MOLECULE
*****
 40 45 0 0 0
SMALL
GASTEIGER

@<TRIPOS>ATOM
      1 N           0.0885    2.2147   20.4058 N.3     1  UNL1       -0.2641
      2 C          -0.6443    3.0641   19.4100 C.3     1  UNL1        0.0981
      3 C           0.0744    3.5974   18.2063 C.3     1  UNL1        0.0224
      4 C          -0.6584    4.4468   17.2105 C.3     1  UNL1        0.0065
      5 C          -2.1099    4.7628   17.4184 C.3     1  UNL1        0.0277
      6 C          -2.8286    4.2295   18.6221 C.ar    1  UNL1       -0.0073
      7 C          -4.2801    4.5455   18.8301 C.ar    1  UNL1       -0.0015
      8 C          -4.9988    4.0122   20.0338 C.ar    1  UNL1        0.0203
      9 C          -4.2661    3.1628   21.0296 C.ar    1  UNL1        0.0985
     10 N          -2.8146    2.8468   20.8217 N.ar    1  UNL1       -0.2471
     11 C          -2.0958    3.3801   19.6179 C.ar    1  UNL1        0.0695
     12 C           0.7826    2.8552   21.5711 C.3     1  UNL1        0.0994
     13 C          -0.3584    1.7173   25.7726 C.ar    1  UNL1       -0.0064
     14 C          -1.0546    2.8566   25.0889 C.ar    1  UNL1       -0.0032
     15 C          -0.6743    3.2359   23.6883 C.ar    1  UNL1       -0.0032
     16 C           0.4023    2.4759   22.9716 C.ar    1  UNL1       -0.0062
     17 C           1.0984    1.3368   23.6554 C.ar    1  UNL1       -0.0032
     18 C           0.7181    0.9575   25.0559 C.ar    1  UNL1       -0.0032
     19 C          -0.7387    1.3380   27.1732 C.3     1  UNL1        0.0959
     20 N          -0.1437    0.1155   27.8069 N.3     1  UNL1       -0.2900
     21 H          -0.7883   -0.1793   28.5404 H       1  UNL1        0.1239
     22 C           1.2195    0.1813   28.4293 C.3     1  UNL1        0.0974
     23 C           0.6173    2.3776   31.6795 C.ar    1  UNL1        0.0204
     24 C           1.7258    1.8866   32.5627 C.ar    1  UNL1        0.0989
     25 N           2.6656    0.8272   32.0681 N.ar    1  UNL1       -0.2426
     26 C           2.4968    0.2588   30.6903 C.ar    1  UNL1        0.0959
     27 C           1.3883    0.7498   29.8071 C.ar    1  UNL1        0.0128
     28 C           0.4485    1.8091   30.3016 C.ar    1  UNL1        0.0002
     29 C           0.1271    0.7249   20.2364 C.3     1  UNL1        0.0888
     30 C           1.3353    0.0694   19.6358 C.3     1  UNL1        0.0748
     31 C           2.0063   -1.0655   20.3512 C.3     1  UNL1        0.0432
     32 C           3.2146   -1.7210   19.7507 C.ar    1  UNL1       -0.0234
     33 C           3.8856   -2.8559   20.4660 C.ar    1  UNL1       -0.0045
     34 C           5.0937   -3.5113   19.8655 C.ar    1  UNL1       -0.0003
     35 C           5.6309   -3.0319   18.5496 C.ar    1  UNL1       -0.0003
     36 C           4.9599   -1.8970   17.8342 C.ar    1  UNL1       -0.0032
     37 C           3.7517   -1.2416   18.4348 C.ar    1  UNL1       -0.0103
     38 C           3.0807   -0.1066   17.7194 C.3     1  UNL1        0.0953
     39 N           1.8725    0.5488   18.3200 N.3     1  UNL1       -0.2934
     40 H           1.1174    0.4527   17.6410 H       1  UNL1        0.1236
@<TRIPOS>BOND
     1    23    24   ar
     2    24    25   ar
     3    25    26   ar
     4    26    27   ar
     5    27    22    1
     6    22    20    1
     7    20    19    1
     8    19    13    1
     9    13    14   ar
    10    14    15   ar
    11    15    16   ar
    12    16    12    1
    13    12     1    1
    14     1    29    1
    15    30    29    1
    16    30    31    1
    17    31    32    1
    18    32    33   ar
    19    33    34   ar
    20    34    35   ar
    21    35    36   ar
    22    36    37   ar
    23    37    38    1
    24    38    39    1
    25     2     1    1
    26     2     3    1
    27     3     4    1
    28     4     5    1
    29     5     6    1
    30     6     7   ar
    31     7     8   ar
    32     8     9   ar
    33     9    10   ar
    34    10    11   ar
    35    16    17   ar
    36    17    18   ar
    37    27    28   ar
    38    28    23   ar
    39    18    13   ar
    40    39    30    1
    41    11     2    1
    42    37    32   ar
    43    11     6   ar
    44    20    21    1
    45    39    40    1
@<TRIPOS>MOLECULE
*****
 40 45 0 0 0
SMALL
GASTEIGER

@<TRIPOS>ATOM
      1 N           0.1449    2.2909   20.1723 N.3     1  UNL1       -0.2641
      2 C          -0.6812    3.0681   19.1906 C.3     1  UNL1        0.0981
      3 C          -0.0718    3.5360   17.9024 C.3     1  UNL1        0.0224
      4 C          -0.8979    4.3132   16.9207 C.3     1  UNL1        0.0065
      5 C          -2.3332    4.6224   17.2273 C.3     1  UNL1        0.0277
      6 C          -2.9426    4.1544   18.5156 C.ar    1  UNL1       -0.0073
      7 C          -4.3780    4.4636   18.8222 C.ar    1  UNL1       -0.0015
      8 C          -4.9874    3.9957   20.1105 C.ar    1  UNL1        0.0203
      9 C          -4.1613    3.2185   21.0921 C.ar    1  UNL1        0.0985
     10 N          -2.7260    2.9093   20.7855 N.ar    1  UNL1       -0.2471
     11 C          -2.1166    3.3773   19.4972 C.ar    1  UNL1        0.0695
     12 C           0.9357    3.0117   21.2235 C.3     1  UNL1        0.0994
     13 C           2.5402    0.7578   24.7725 C.ar    1  UNL1       -0.0064
     14 C           3.4819    1.2860   23.7312 C.ar    1  UNL1       -0.0032
     15 C           2.9471    2.0373   22.5482 C.ar    1  UNL1       -0.0032
     16 C           1.4705    2.2604   22.4065 C.ar    1  UNL1       -0.0062
     17 C           0.5289    1.7322   23.4477 C.ar    1  UNL1       -0.0032
     18 C           1.0637    0.9809   24.6307 C.ar    1  UNL1       -0.0032
     19 C           3.0750    0.0065   25.9555 C.3     1  UNL1        0.0959
     20 N           3.7356    0.7488   27.0793 N.3     1  UNL1       -0.2900
     21 H           4.2739    0.0631   27.6088 H       1  UNL1        0.1239
     22 C           2.9020    1.5046   28.0711 C.3     1  UNL1        0.0974
     23 C          -1.0639    1.5618   27.9364 C.ar    1  UNL1        0.0204
     24 C          -1.3927    0.3444   28.7486 C.ar    1  UNL1        0.0989
     25 N          -0.2899   -0.4863   29.3351 N.ar    1  UNL1       -0.2426
     26 C           1.1416   -0.0995   29.1092 C.ar    1  UNL1        0.0959
     27 C           1.4705    1.1179   28.2970 C.ar    1  UNL1        0.0128
     28 C           0.3677    1.9485   27.7105 C.ar    1  UNL1        0.0002
     29 C           0.1800    0.7929   20.1028 C.3     1  UNL1        0.0888
     30 C           1.3929    0.0955   19.5618 C.3     1  UNL1        0.0748
     31 C           2.0549   -0.9869   20.3617 C.3     1  UNL1        0.0432
     32 C           3.2677   -1.6844   19.8207 C.ar    1  UNL1       -0.0234
     33 C           3.9298   -2.7668   20.6207 C.ar    1  UNL1       -0.0045
     34 C           5.1425   -3.4642   20.0796 C.ar    1  UNL1       -0.0003
     35 C           5.6933   -3.0791   18.7386 C.ar    1  UNL1       -0.0003
     36 C           5.0313   -1.9967   17.9386 C.ar    1  UNL1       -0.0032
     37 C           3.8185   -1.2993   18.4796 C.ar    1  UNL1       -0.0103
     38 C           3.1564   -0.2169   17.6796 C.3     1  UNL1        0.0953
     39 N           1.9436    0.4805   18.2207 N.3     1  UNL1       -0.2934
     40 H           1.1949    0.3377   17.5429 H       1  UNL1        0.1236
@<TRIPOS>BOND
     1    23    24   ar
     2    24    25   ar
     3    25    26   ar
     4    26    27   ar
     5    27    22    1
     6    22    20    1
     7    20    19    1
     8    19    13    1
     9    13    14   ar
    10    14    15   ar
    11    15    16   ar
    12    16    12    1
    13    12     1    1
    14     1    29    1
    15    30    29    1
    16    30    31    1
    17    31    32    1
    18    32    33   ar
    19    33    34   ar
    20    34    35   ar
    21    35    36   ar
    22    36    37   ar
    23    37    38    1
    24    38    39    1
    25     2     1    1
    26     2     3    1
    27     3     4    1
    28     4     5    1
    29     5     6    1
    30     6     7   ar
    31     7     8   ar
    32     8     9   ar
    33     9    10   ar
    34    10    11   ar
    35    16    17   ar
    36    17    18   ar
    37    27    28   ar
    38    28    23   ar
    39    18    13   ar
    40    39    30    1
    41    11     2    1
    42    37    32   ar
    43    11     6   ar
    44    20    21    1
    45    39    40    1
@<TRIPOS>MOLECULE
*****
 40 45 0 0 0
SMALL
GASTEIGER

@<TRIPOS>ATOM
      1 N           4.1255   -0.0002   26.5329 N.3     1  UNL1       -0.2641
      2 C           2.9048    0.1612   27.3896 C.3     1  UNL1        0.0981
      3 C           2.9047   -0.3516   28.7992 C.3     1  UNL1        0.0224
      4 C           1.6841   -0.1903   29.6560 C.3     1  UNL1        0.0065
      5 C           0.4635    0.4838   29.1031 C.3     1  UNL1        0.0277
      6 C           0.4636    0.9966   27.6935 C.ar    1  UNL1       -0.0073
      7 C          -0.7570    1.6708   27.1406 C.ar    1  UNL1       -0.0015
      8 C          -0.7570    2.1836   25.7310 C.ar    1  UNL1        0.0203
      9 C           0.4637    2.0223   24.8743 C.ar    1  UNL1        0.0985
     10 N           1.6843    1.3481   25.4271 N.ar    1  UNL1       -0.2471
     11 C           1.6842    0.8353   26.8368 C.ar    1  UNL1        0.0695
     12 C           5.0830    1.1426   26.3689 C.3     1  UNL1        0.0994
     13 C           6.1236    2.6331   22.2523 C.ar    1  UNL1       -0.0064
     14 C           7.0012    1.6212   22.9277 C.ar    1  UNL1       -0.0032
     15 C           6.6543    1.1244   24.2998 C.ar    1  UNL1       -0.0032
     16 C           5.4299    1.6395   24.9967 C.ar    1  UNL1       -0.0062
     17 C           4.5524    2.6513   24.3213 C.ar    1  UNL1       -0.0032
     18 C           4.8993    3.1481   22.9492 C.ar    1  UNL1       -0.0032
     19 C           6.4705    3.1299   20.8801 C.3     1  UNL1        0.0959
     20 N           5.7617    2.5750   19.6802 N.3     1  UNL1       -0.2900
     21 H           5.0167    3.2320   19.4483 H       1  UNL1        0.1239
     22 C           5.1346    1.2138   19.7425 C.3     1  UNL1        0.0974
     23 C           7.5392   -1.9389   19.9108 C.ar    1  UNL1        0.0204
     24 C           7.4908   -2.4086   18.4871 C.ar    1  UNL1        0.0989
     25 N           6.6570   -1.6708   17.4818 N.ar    1  UNL1       -0.2426
     26 C           5.8716   -0.4634   17.9003 C.ar    1  UNL1        0.0959
     27 C           5.9200    0.0063   19.3240 C.ar    1  UNL1        0.0128
     28 C           6.7537   -0.7314   20.3293 C.ar    1  UNL1        0.0002
     29 C           4.3885   -1.3044   25.8402 C.3     1  UNL1        0.0888
     30 C           4.0465   -1.4649   24.3885 C.3     1  UNL1        0.0748
     31 C           4.6205   -2.6078   23.6047 C.3     1  UNL1        0.0432
     32 C           4.2785   -2.7683   22.1530 C.ar    1  UNL1       -0.0234
     33 C           4.8525   -3.9112   21.3692 C.ar    1  UNL1       -0.0045
     34 C           4.5105   -4.0717   19.9176 C.ar    1  UNL1       -0.0003
     35 C           3.5945   -3.0894   19.2498 C.ar    1  UNL1       -0.0003
     36 C           3.0205   -1.9465   20.0336 C.ar    1  UNL1       -0.0032
     37 C           3.3625   -1.7860   21.4852 C.ar    1  UNL1       -0.0103
     38 C           2.7885   -0.6431   22.2691 C.3     1  UNL1        0.0953
     39 N           3.1305   -0.4826   23.7207 N.3     1  UNL1       -0.2934
     40 H           2.2499   -0.5046   24.2349 H       1  UNL1        0.1236
@<TRIPOS>BOND
     1    23    24   ar
     2    24    25   ar
     3    25    26   ar
     4    26    27   ar
     5    27    22    1
     6    22    20    1
     7    20    19    1
     8    19    13    1
     9    13    14   ar
    10    14    15   ar
    11    15    16   ar
    12    16    12    1
    13    12     1    1
    14     1    29    1
    15    30    29    1
    16    30    31    1
    17    31    32    1
    18    32    33   ar
    19    33    34   ar
    20    34    35   ar
    21    35    36   ar
    22    36    37   ar
    23    37    38    1
    24    38    39    1
    25     2     1    1
    26     2     3    1
    27     3     4    1
    28     4     5    1
    29     5     6    1
    30     6     7   ar
    31     7     8   ar
    32     8     9   ar
    33     9    10   ar
    34    10    11   ar
    35    16    17   ar
    36    17    18   ar
    37    27    28   ar
    38    28    23   ar
    39    18    13   ar
    40    39    30    1
    41    11     2    1
    42    37    32   ar
    43    11     6   ar
    44    20    21    1
    45    39    40    1
@<TRIPOS>MOLECULE
*****
 40 45 0 0 0
SMALL
GASTEIGER

@<TRIPOS>ATOM
      1 N           0.8321    1.9259   22.5261 N.3     1  UNL1       -0.2641
      2 C           1.8897    1.5857   23.5340 C.3     1  UNL1        0.0981
      3 C           3.3269    1.5004   23.1133 C.3     1  UNL1        0.0224
      4 C           4.3845    1.1601   24.1211 C.3     1  UNL1        0.0065
      5 C           4.0048    0.9051   25.5497 C.3     1  UNL1        0.0277
      6 C           2.5676    0.9904   25.9704 C.ar    1  UNL1       -0.0073
      7 C           2.1878    0.7355   27.3990 C.ar    1  UNL1       -0.0015
      8 C           0.7506    0.8208   27.8197 C.ar    1  UNL1        0.0203
      9 C          -0.3070    1.1610   26.8118 C.ar    1  UNL1        0.0985
     10 N           0.0727    1.4160   25.3833 N.ar    1  UNL1       -0.2471
     11 C           1.5100    1.3307   24.9625 C.ar    1  UNL1        0.0695
     12 C           0.3864    0.8967   21.5301 C.3     1  UNL1        0.0994
     13 C           3.2055   -0.4828   18.3054 C.ar    1  UNL1       -0.0064
     14 C           2.6305    0.9019   18.2570 C.ar    1  UNL1       -0.0032
     15 C           1.6908    1.3617   19.3319 C.ar    1  UNL1       -0.0032
     16 C           1.3261    0.4369   20.4552 C.ar    1  UNL1       -0.0062
     17 C           1.9011   -0.9476   20.5036 C.ar    1  UNL1       -0.0032
     18 C           2.8408   -1.4075   19.4286 C.ar    1  UNL1       -0.0032
     19 C           4.1452   -0.9426   17.2304 C.3     1  UNL1        0.0959
     20 N           4.9196   -2.2153   17.4053 N.3     1  UNL1       -0.2900
     21 H           4.2985   -2.8762   17.8721 H       1  UNL1        0.1239
     22 C           6.2058   -2.2107   18.1772 C.3     1  UNL1        0.0974
     23 C           6.3313   -1.6035   22.0971 C.ar    1  UNL1        0.0204
     24 C           6.1747   -3.0057   22.6063 C.ar    1  UNL1        0.0989
     25 N           6.0285   -4.1429   21.6390 N.ar    1  UNL1       -0.2426
     26 C           6.0388   -3.8779   20.1627 C.ar    1  UNL1        0.0959
     27 C           6.1954   -2.4757   19.6535 C.ar    1  UNL1        0.0128
     28 C           6.3417   -1.3385   20.6206 C.ar    1  UNL1        0.0002
     29 C           0.2203    3.2954   22.5142 C.3     1  UNL1        0.0888
     30 C          -1.2387    3.4677   22.8173 C.3     1  UNL1        0.0748
     31 C          -2.2258    3.6093   21.6968 C.3     1  UNL1        0.0432
     32 C          -3.6848    3.7816   21.9998 C.ar    1  UNL1       -0.0234
     33 C          -4.6719    3.9232   20.8793 C.ar    1  UNL1       -0.0045
     34 C          -6.1308    4.0955   21.1824 C.ar    1  UNL1       -0.0003
     35 C          -6.6026    4.1262   22.6059 C.ar    1  UNL1       -0.0003
     36 C          -5.6155    3.9846   23.7264 C.ar    1  UNL1       -0.0032
     37 C          -4.1566    3.8123   23.4233 C.ar    1  UNL1       -0.0103
     38 C          -3.1694    3.6707   24.5439 C.3     1  UNL1        0.0953
     39 N          -1.7105    3.4984   24.2408 N.3     1  UNL1       -0.2934
     40 H          -1.4238    2.6163   24.6651 H       1  UNL1        0.1236
@<TRIPOS>BOND
     1    23    24   ar
     2    24    25   ar
     3    25    26   ar
     4    26    27   ar
     5    27    22    1
     6    22    20    1
     7    20    19    1
     8    19    13    1
     9    13    14   ar
    10    14    15   ar
    11    15    16   ar
    12    16    12    1
    13    12     1    1
    14     1    29    1
    15    30    29    1
    16    30    31    1
    17    31    32    1
    18    32    33   ar
    19    33    34   ar
    20    34    35   ar
    21    35    36   ar
    22    36    37   ar
    23    37    38    1
    24    38    39    1
    25     2     1    1
    26     2     3    1
    27     3     4    1
    28     4     5    1
    29     5     6    1
    30     6     7   ar
    31     7     8   ar
    32     8     9   ar
    33     9    10   ar
    34    10    11   ar
    35    16    17   ar
    36    17    18   ar
    37    27    28   ar
    38    28    23   ar
    39    18    13   ar
    40    39    30    1
    41    11     2    1
    42    37    32   ar
    43    11     6   ar
    44    20    21    1
    45    39    40    1
@<TRIPOS>MOLECULE
*****
 40 45 0 0 0
SMALL
GASTEIGER

@<TRIPOS>ATOM
      1 N          -6.8938  -19.3134   21.9539 N.3     1  UNL1       -0.2641
      2 C          -5.6992  -19.7879   21.1808 C.3     1  UNL1        0.0981
      3 C          -5.8784  -20.7278   20.0256 C.3     1  UNL1        0.0224
      4 C          -4.6837  -21.2023   19.2524 C.3     1  UNL1        0.0065
      5 C          -3.3099  -20.7369   19.6345 C.3     1  UNL1        0.0277
      6 C          -3.1307  -19.7971   20.7897 C.ar    1  UNL1       -0.0073
      7 C          -1.7568  -19.3317   21.1718 C.ar    1  UNL1       -0.0015
      8 C          -1.5777  -18.3918   22.3270 C.ar    1  UNL1        0.0203
      9 C          -2.7723  -17.9173   23.1002 C.ar    1  UNL1        0.0985
     10 N          -4.1461  -18.3827   22.7181 N.ar    1  UNL1       -0.2471
     11 C          -4.3253  -19.3226   21.5628 C.ar    1  UNL1        0.0695
     12 C          -7.7273  -20.2948   22.7234 C.3     1  UNL1        0.0994
     13 C         -11.8686  -19.1607   24.0699 C.ar    1  UNL1       -0.0064
     14 C         -11.6073  -19.4664   22.6248 C.ar    1  UNL1       -0.0032
     15 C         -10.2268  -19.8444   22.1759 C.ar    1  UNL1       -0.0032
     16 C          -9.1077  -19.9168   23.1722 C.ar    1  UNL1       -0.0062
     17 C          -9.3691  -19.6111   24.6173 C.ar    1  UNL1       -0.0032
     18 C         -10.7496  -19.2330   25.0661 C.ar    1  UNL1       -0.0032
     19 C         -13.2491  -18.7827   24.5188 C.3     1  UNL1        0.0959
     20 N         -14.0045  -17.7070   23.7960 N.3     1  UNL1       -0.2900
     21 H         -14.3126  -18.1079   22.9102 H       1  UNL1        0.1239
     22 C         -13.3313  -16.4063   23.4717 C.3     1  UNL1        0.0974
     23 C         -10.1405  -15.8229   21.1852 C.ar    1  UNL1        0.0204
     24 C         -10.7177  -16.0736   19.8236 C.ar    1  UNL1        0.0989
     25 N         -12.1663  -16.4353   19.6781 N.ar    1  UNL1       -0.2426
     26 C         -13.0374  -16.5461   20.8941 C.ar    1  UNL1        0.0959
     27 C         -12.4601  -16.2954   22.2557 C.ar    1  UNL1        0.0128
     28 C         -11.0117  -15.9338   22.4012 C.ar    1  UNL1        0.0002
     29 C          -7.2549  -17.8576   21.9576 C.3     1  UNL1        0.0888
     30 C          -6.9607  -17.0149   23.1631 C.3     1  UNL1        0.0748
     31 C          -7.9781  -16.8917   24.2585 C.3     1  UNL1        0.0432
     32 C          -7.6839  -16.0490   25.4640 C.ar    1  UNL1       -0.0234
     33 C          -8.7012  -15.9258   26.5594 C.ar    1  UNL1       -0.0045
     34 C          -8.4070  -15.0831   27.7649 C.ar    1  UNL1       -0.0003
     35 C          -7.0954  -14.3636   27.8750 C.ar    1  UNL1       -0.0003
     36 C          -6.0781  -14.4868   26.7797 C.ar    1  UNL1       -0.0032
     37 C          -6.3723  -15.3295   25.5742 C.ar    1  UNL1       -0.0103
     38 C          -5.3549  -15.4527   24.4788 C.3     1  UNL1        0.0953
     39 N          -5.6491  -16.2954   23.2733 N.3     1  UNL1       -0.2934
     40 H          -4.9187  -17.0057   23.2252 H       1  UNL1        0.1236
@<TRIPOS>BOND
     1    23    24   ar
     2    24    25   ar
     3    25    26   ar
     4    26    27   ar
     5    27    22    1
     6    22    20    1
     7    20    19    1
     8    19    13    1
     9    13    14   ar
    10    14    15   ar
    11    15    16   ar
    12    16    12    1
    13    12     1    1
    14     1    29    1
    15    30    29    1
    16    30    31    1
    17    31    32    1
    18    32    33   ar
    19    33    34   ar
    20    34    35   ar
    21    35    36   ar
    22    36    37   ar
    23    37    38    1
    24    38    39    1
    25     2     1    1
    26     2     3    1
    27     3     4    1
    28     4     5    1
    29     5     6    1
    30     6     7   ar
    31     7     8   ar
    32     8     9   ar
    33     9    10   ar
    34    10    11   ar
    35    16    17   ar
    36    17    18   ar
    37    27    28   ar
    38    28    23   ar
    39    18    13   ar
    40    39    30    1
    41    11     2    1
    42    37    32   ar
    43    11     6   ar
    44    20    21    1
    45    39    40    1
