@<TRIPOS>MOLECULE
*****
 54 60 0 0 0
SMALL
GASTEIGER

@<TRIPOS>ATOM
      1 C           7.2421   -4.1212   23.5662 C.ar    1  UNL1        0.1090
      2 C           7.5533   -5.1795   24.5827 C.ar    1  UNL1        0.0405
      3 C           8.2959   -6.4169   24.1737 C.ar    1  UNL1        0.1596
      4 F           8.6071   -7.4752   25.1902 F       1  UNL1       -0.2025
      5 C           8.7273   -6.5961   22.7483 C.ar    1  UNL1        0.1316
      6 N           8.4161   -5.5379   21.7319 N.ar    1  UNL1       -0.2073
      7 C           7.6735   -4.3005   22.1408 C.ar    1  UNL1        0.2341
      8 N           5.0332   -2.9562   24.2827 N.am    1  UNL1       -0.3024
      9 C           6.4995   -2.8837   23.9751 C.2     1  UNL1        0.2504
     10 O           7.2232   -1.5738   24.0763 O.2     1  UNL1       -0.2700
     11 H           4.5582   -3.8160   24.2163 H       1  UNL1        0.1497
     12 C           2.8054    0.7563   25.5093 C.3     1  UNL1        0.0720
     13 C           2.7970    0.3159   24.0754 C.3     1  UNL1        0.0213
     14 C           3.5396   -0.9216   23.6666 C.3     1  UNL1        0.0213
     15 C           4.2906   -1.7187   24.6916 C.3     1  UNL1        0.0720
     16 C           4.2990   -1.2783   26.1255 C.3     1  UNL1        0.0213
     17 C           3.5564   -0.0408   26.5343 C.3     1  UNL1        0.0213
     18 C           0.5671    2.0396   25.8146 C.2     1  UNL1        0.2653
     19 O          -0.1861    0.8479   25.3021 O.2     1  UNL1       -0.2684
     20 N           2.0627    1.9938   25.9182 N.am    1  UNL1       -0.3012
     21 H           2.5570    2.7759   26.2546 H       1  UNL1        0.1497
     22 C          -3.3178    5.3421   27.1864 C.3     1  UNL1        0.0518
     23 C          -1.9613    4.7951   26.8540 C.ar    1  UNL1        0.0577
     24 C          -1.6523    3.3794   26.4659 C.ar    1  UNL1        0.0398
     25 C          -0.1756    3.2771   26.2235 C.ar    1  UNL1        0.1551
     26 N           0.4281    4.6294   26.4616 N.ar    1  UNL1       -0.1649
     27 N          -0.6755    5.5676   26.8513 N.ar    1  UNL1       -0.2527
     28 C          -0.5205    7.0227   27.1805 C.3     1  UNL1        0.1533
     29 O           7.3623   -3.2421   21.1243 O.3     1  UNL1       -0.4360
     30 C           6.0124   -3.2032   20.4714 C.ar    1  UNL1        0.1472
     31 C           5.5443   -4.3656   19.6469 C.ar    1  UNL1        0.0376
     32 C           4.1944   -4.3267   18.9940 C.ar    1  UNL1        0.0031
     33 C           3.3127   -3.1253   19.1655 C.ar    1  UNL1        0.0002
     34 C           3.7809   -1.9629   19.9899 C.ar    1  UNL1        0.0030
     35 C           5.1308   -2.0019   20.6428 C.ar    1  UNL1        0.0376
     36 C           2.8992   -0.7615   20.1614 C.ar    1  UNL1        0.0001
     37 C           1.4078   -0.9216   20.1754 C.ar    1  UNL1       -0.0003
     38 C           0.5261    0.2797   20.3469 C.ar    1  UNL1       -0.0042
     39 C           1.1358    1.6410   20.5044 C.ar    1  UNL1       -0.0208
     40 C           2.6272    1.8011   20.4905 C.ar    1  UNL1       -0.0042
     41 C           3.5089    0.5998   20.3190 C.ar    1  UNL1       -0.0003
     42 C           0.2541    2.8424   20.6760 C.3     1  UNL1        0.0437
     43 C          -1.1019    2.8751   20.0355 C.3     1  UNL1        0.0768
     44 N          -2.3012    3.2825   20.8390 N.3     1  UNL1       -0.2723
     45 C          -3.6492    3.3635   20.1861 C.3     1  UNL1        0.0735
     46 C          -4.8486    3.7709   20.9897 C.3     1  UNL1        0.0333
     47 C          -4.6999    4.0972   22.4461 C.3     1  UNL1        0.0603
     48 C          -3.3519    4.0162   23.0991 C.3     1  UNL1        0.0333
     49 C          -2.1526    3.6089   22.2956 C.3     1  UNL1        0.0735
     50 N          -5.8992    4.5046   23.2496 N.3     1  UNL1       -0.2739
     51 C          -7.3327    4.3323   22.8431 C.3     1  UNL1        0.0721
     52 C          -8.1951    4.8770   23.9430 C.3     1  UNL1        0.0188
     53 C          -7.2945    5.3860   25.0293 C.3     1  UNL1        0.0188
     54 C          -5.8755    5.1558   24.6007 C.3     1  UNL1        0.0721
@<TRIPOS>BOND
     1    22    23    1
     2    23    24   ar
     3    24    25   ar
     4    25    18    1
     5    18    19    2
     6    18    20   am
     7    12    20    1
     8    12    13    1
     9    13    14    1
    10    14    15    1
    11    15     8    1
    12     8     9   am
    13     9    10    2
    14     9     1    1
    15     1     2   ar
    16     2     3   ar
    17     3     4    1
    18     3     5   ar
    19     5     6   ar
    20     6     7   ar
    21     7    29    1
    22    29    30    1
    23    30    31   ar
    24    31    32   ar
    25    32    33   ar
    26    33    34   ar
    27    34    36    1
    28    36    37   ar
    29    37    38   ar
    30    38    39   ar
    31    39    42    1
    32    42    43    1
    33    43    44    1
    34    44    45    1
    35    45    46    1
    36    46    47    1
    37    47    50    1
    38    50    51    1
    39    51    52    1
    40    52    53    1
    41    53    54    1
    42    47    48    1
    43    48    49    1
    44    39    40   ar
    45    40    41   ar
    46    34    35   ar
    47    15    16    1
    48    16    17    1
    49    25    26   ar
    50    26    27   ar
    51    27    28    1
    52    27    23   ar
    53    17    12    1
    54     7     1   ar
    55    35    30   ar
    56    41    36   ar
    57    49    44    1
    58    54    50    1
    59    20    21    1
    60     8    11    1
@<TRIPOS>MOLECULE
*****
 54 60 0 0 0
SMALL
GASTEIGER

@<TRIPOS>ATOM
      1 C          -2.9524    3.3736   24.1721 C.ar    1  UNL1        0.1090
      2 C          -4.4491    3.4110   24.2637 C.ar    1  UNL1        0.0405
      3 C          -5.2696    3.6627   23.0336 C.ar    1  UNL1        0.1596
      4 F          -6.7664    3.7001   23.1251 F       1  UNL1       -0.2025
      5 C          -4.5935    3.8771   21.7119 C.ar    1  UNL1        0.1316
      6 N          -3.0968    3.8397   21.6203 N.ar    1  UNL1       -0.2073
      7 C          -2.2762    3.5880   22.8504 C.ar    1  UNL1        0.2341
      8 N          -0.8622    2.3285   25.3075 N.am    1  UNL1       -0.3024
      9 C          -2.1317    3.1218   25.4022 C.2     1  UNL1        0.2504
     10 O          -2.5805    3.6635   26.7270 O.2     1  UNL1       -0.2700
     11 H          -0.5677    1.9729   24.4380 H       1  UNL1        0.1497
     12 C           1.5997    1.5733   28.9978 C.3     1  UNL1        0.0720
     13 C           1.8511    2.7958   28.1658 C.3     1  UNL1        0.0213
     14 C           1.0304    3.0475   26.9357 C.3     1  UNL1        0.0213
     15 C          -0.0416    2.0767   26.5377 C.3     1  UNL1        0.0720
     16 C          -0.2929    0.8542   27.3697 C.3     1  UNL1        0.0213
     17 C           0.5278    0.6025   28.5998 C.3     1  UNL1        0.0213
     18 C           1.8150    1.5168   31.5864 C.2     1  UNL1        0.2653
     19 O           0.3889    1.9637   31.7147 O.2     1  UNL1       -0.2684
     20 N           2.4204    1.3216   30.2280 N.am    1  UNL1       -0.3012
     21 H           3.3564    1.0282   30.1437 H       1  UNL1        0.1497
     22 C           3.9939    2.0531   36.3661 C.3     1  UNL1        0.0518
     23 C           3.6372    1.5116   35.0135 C.ar    1  UNL1        0.0577
     24 C           2.6952    2.1427   34.0314 C.ar    1  UNL1        0.0398
     25 C           2.6357    1.2650   32.8165 C.ar    1  UNL1        0.1551
     26 N           3.5408    0.0914   33.0476 N.ar    1  UNL1       -0.1649
     27 N           4.1598    0.2438   34.4054 N.ar    1  UNL1       -0.2527
     28 C           5.1308   -0.7050   35.0432 C.3     1  UNL1        0.1533
     29 O          -0.7795    3.5506   22.7588 O.3     1  UNL1       -0.4360
     30 C          -0.1124    2.6893   21.7277 C.ar    1  UNL1        0.1472
     31 C          -0.3700    2.9292   20.2696 C.ar    1  UNL1        0.0376
     32 C           0.2971    2.0679   19.2385 C.ar    1  UNL1        0.0031
     33 C           1.2216    0.9666   19.6655 C.ar    1  UNL1        0.0002
     34 C           1.4792    0.7267   21.1236 C.ar    1  UNL1        0.0030
     35 C           0.8121    1.5880   22.1547 C.ar    1  UNL1        0.0376
     36 C           2.4038   -0.3746   21.5507 C.ar    1  UNL1        0.0001
     37 C           2.9250   -1.3511   20.5384 C.ar    1  UNL1       -0.0003
     38 C           3.8496   -2.4524   20.9654 C.ar    1  UNL1       -0.0042
     39 C           4.2529   -2.5772   22.4047 C.ar    1  UNL1       -0.0208
     40 C           3.7316   -1.6007   23.4170 C.ar    1  UNL1       -0.0042
     41 C           2.8071   -0.4994   22.9900 C.ar    1  UNL1       -0.0003
     42 C           5.1775   -3.6785   22.8318 C.3     1  UNL1        0.0437
     43 C           6.4342   -3.3534   23.5833 C.3     1  UNL1        0.0768
     44 N           6.5177   -3.6217   25.0567 N.3     1  UNL1       -0.2723
     45 C           6.2368   -2.5212   26.0365 C.3     1  UNL1        0.0735
     46 C           6.3203   -2.7895   27.5100 C.3     1  UNL1        0.0333
     47 C           6.6845   -4.1583   28.0037 C.3     1  UNL1        0.0603
     48 C           6.9653   -5.2588   27.0239 C.3     1  UNL1        0.0333
     49 C           6.8819   -4.9905   25.5504 C.3     1  UNL1        0.0735
     50 N           6.7679   -4.4266   29.4771 N.3     1  UNL1       -0.2739
     51 C           7.0065   -5.7616   30.1180 C.3     1  UNL1        0.0721
     52 C           7.0134   -5.5671   31.6054 C.3     1  UNL1        0.0188
     53 C           6.7792   -4.1118   31.8836 C.3     1  UNL1        0.0188
     54 C           6.6275   -3.4070   30.5683 C.3     1  UNL1        0.0721
@<TRIPOS>BOND
     1    22    23    1
     2    23    24   ar
     3    24    25   ar
     4    25    18    1
     5    18    19    2
     6    18    20   am
     7    12    20    1
     8    12    13    1
     9    13    14    1
    10    14    15    1
    11    15     8    1
    12     8     9   am
    13     9    10    2
    14     9     1    1
    15     1     2   ar
    16     2     3   ar
    17     3     4    1
    18     3     5   ar
    19     5     6   ar
    20     6     7   ar
    21     7    29    1
    22    29    30    1
    23    30    31   ar
    24    31    32   ar
    25    32    33   ar
    26    33    34   ar
    27    34    36    1
    28    36    37   ar
    29    37    38   ar
    30    38    39   ar
    31    39    42    1
    32    42    43    1
    33    43    44    1
    34    44    45    1
    35    45    46    1
    36    46    47    1
    37    47    50    1
    38    50    51    1
    39    51    52    1
    40    52    53    1
    41    53    54    1
    42    47    48    1
    43    48    49    1
    44    39    40   ar
    45    40    41   ar
    46    34    35   ar
    47    15    16    1
    48    16    17    1
    49    25    26   ar
    50    26    27   ar
    51    27    28    1
    52    27    23   ar
    53    17    12    1
    54     7     1   ar
    55    35    30   ar
    56    41    36   ar
    57    49    44    1
    58    54    50    1
    59    20    21    1
    60     8    11    1
@<TRIPOS>MOLECULE
*****
 54 60 0 0 0
SMALL
GASTEIGER

@<TRIPOS>ATOM
      1 C          -2.8327    3.5403   23.3715 C.ar    1  UNL1        0.1090
      2 C          -4.3308    3.5958   23.4229 C.ar    1  UNL1        0.0405
      3 C          -5.1144    3.8704   22.1737 C.ar    1  UNL1        0.1596
      4 F          -6.6125    3.9259   22.2250 F       1  UNL1       -0.2025
      5 C          -4.3999    4.0895   20.8731 C.ar    1  UNL1        0.1316
      6 N          -2.9018    4.0340   20.8217 N.ar    1  UNL1       -0.2073
      7 C          -2.1182    3.7594   22.0709 C.ar    1  UNL1        0.2341
      8 N          -0.8539    2.3606   24.5727 N.am    1  UNL1       -0.3024
      9 C          -2.0491    3.2657   24.6208 C.2     1  UNL1        0.2504
     10 O          -2.4606    3.8963   25.9181 O.2     1  UNL1       -0.2700
     11 H          -0.5838    1.9467   23.7212 H       1  UNL1        0.1497
     12 C           1.4969    1.5367   28.3203 C.3     1  UNL1        0.0720
     13 C           0.2331    0.7769   28.0455 C.3     1  UNL1        0.0213
     14 C          -0.5504    1.0515   26.7963 C.3     1  UNL1        0.0213
     15 C          -0.0703    2.0860   25.8219 C.3     1  UNL1        0.0720
     16 C           1.1934    2.8458   26.0968 C.3     1  UNL1        0.0213
     17 C           1.9770    2.5712   27.3460 C.3     1  UNL1        0.0213
     18 C           3.1679    0.0553   29.6482 C.2     1  UNL1        0.2653
     19 O           3.2716   -0.8769   28.4777 O.2     1  UNL1       -0.2684
     20 N           2.2805    1.2621   29.5696 N.am    1  UNL1       -0.3012
     21 H           2.2124    1.8740   30.3378 H       1  UNL1        0.1497
     22 C           7.1401   -0.2949   33.1094 C.3     1  UNL1        0.0518
     23 C           5.7774   -0.3802   32.4884 C.ar    1  UNL1        0.0577
     24 C           5.4152    0.0426   31.0954 C.ar    1  UNL1        0.0398
     25 C           3.9515   -0.2193   30.8975 C.ar    1  UNL1        0.1551
     26 N           3.4091   -0.8038   32.1679 N.ar    1  UNL1       -0.1649
     27 N           4.5375   -0.9033   33.1512 N.ar    1  UNL1       -0.2527
     28 C           4.4428   -1.4329   34.5513 C.3     1  UNL1        0.1533
     29 O          -0.6201    3.7039   22.0196 O.3     1  UNL1       -0.4360
     30 C           0.0636    2.7728   21.0628 C.ar    1  UNL1        0.1472
     31 C          -0.1086    2.9577   19.5841 C.ar    1  UNL1        0.0376
     32 C           0.5751    2.0265   18.6273 C.ar    1  UNL1        0.0031
     33 C           1.4309    0.9105   19.1490 C.ar    1  UNL1        0.0002
     34 C           1.6030    0.7256   20.6276 C.ar    1  UNL1        0.0030
     35 C           0.9193    1.6568   21.5844 C.ar    1  UNL1        0.0376
     36 C           2.4587   -0.3904   21.1493 C.ar    1  UNL1        0.0001
     37 C           2.7916   -0.4602   22.6103 C.ar    1  UNL1       -0.0003
     38 C           3.6474   -1.5761   23.1320 C.ar    1  UNL1       -0.0042
     39 C           4.1702   -2.6223   22.1929 C.ar    1  UNL1       -0.0208
     40 C           3.8373   -2.5526   20.7320 C.ar    1  UNL1       -0.0042
     41 C           2.9816   -1.4366   20.2102 C.ar    1  UNL1       -0.0003
     42 C           5.0260   -3.7384   22.7147 C.3     1  UNL1        0.0437
     43 C           6.3062   -3.4291   23.4325 C.3     1  UNL1        0.0768
     44 N           6.4186   -3.6795   24.9071 N.3     1  UNL1       -0.2723
     45 C           6.8372   -5.0298   25.4088 C.3     1  UNL1        0.0735
     46 C           6.9496   -5.2802   26.8835 C.3     1  UNL1        0.0333
     47 C           6.6434   -4.1804   27.8565 C.3     1  UNL1        0.0603
     48 C           6.2248   -2.8302   27.3548 C.3     1  UNL1        0.0333
     49 C           6.1124   -2.5797   25.8802 C.3     1  UNL1        0.0735
     50 N           6.7558   -4.4309   29.3311 N.3     1  UNL1       -0.2739
     51 C           6.4777   -3.4354   30.4182 C.3     1  UNL1        0.0721
     52 C           6.7161   -4.1101   31.7365 C.3     1  UNL1        0.0188
     53 C           7.1415   -5.5225   31.4643 C.3     1  UNL1        0.0188
     54 C           7.1661   -5.7207   29.9777 C.3     1  UNL1        0.0721
@<TRIPOS>BOND
     1    22    23    1
     2    23    24   ar
     3    24    25   ar
     4    25    18    1
     5    18    19    2
     6    18    20   am
     7    12    20    1
     8    12    13    1
     9    13    14    1
    10    14    15    1
    11    15     8    1
    12     8     9   am
    13     9    10    2
    14     9     1    1
    15     1     2   ar
    16     2     3   ar
    17     3     4    1
    18     3     5   ar
    19     5     6   ar
    20     6     7   ar
    21     7    29    1
    22    29    30    1
    23    30    31   ar
    24    31    32   ar
    25    32    33   ar
    26    33    34   ar
    27    34    36    1
    28    36    37   ar
    29    37    38   ar
    30    38    39   ar
    31    39    42    1
    32    42    43    1
    33    43    44    1
    34    44    45    1
    35    45    46    1
    36    46    47    1
    37    47    50    1
    38    50    51    1
    39    51    52    1
    40    52    53    1
    41    53    54    1
    42    47    48    1
    43    48    49    1
    44    39    40   ar
    45    40    41   ar
    46    34    35   ar
    47    15    16    1
    48    16    17    1
    49    25    26   ar
    50    26    27   ar
    51    27    28    1
    52    27    23   ar
    53    17    12    1
    54     7     1   ar
    55    35    30   ar
    56    41    36   ar
    57    49    44    1
    58    54    50    1
    59    20    21    1
    60     8    11    1
@<TRIPOS>MOLECULE
*****
 54 60 0 0 0
SMALL
GASTEIGER

@<TRIPOS>ATOM
      1 C           3.8024    0.0244   33.0472 C.ar    1  UNL1        0.1090
      2 C           3.3769    1.3430   33.6218 C.ar    1  UNL1        0.0405
      3 C           3.6659    1.6634   35.0584 C.ar    1  UNL1        0.1596
      4 F           3.2404    2.9820   35.6331 F       1  UNL1       -0.2025
      5 C           4.3804    0.6651   35.9204 C.ar    1  UNL1        0.1316
      6 N           4.8060   -0.6534   35.3458 N.ar    1  UNL1       -0.2073
      7 C           4.5170   -0.9738   33.9092 C.ar    1  UNL1        0.2341
      8 N           4.3044    0.3650   30.5209 N.am    1  UNL1       -0.3024
      9 C           3.5135   -0.2960   31.6106 C.2     1  UNL1        0.2504
     10 O           2.4335   -1.2775   31.2637 O.2     1  UNL1       -0.2700
     11 H           5.0133    1.0091   30.7486 H       1  UNL1        0.1497
     12 C           3.4374   -0.5962   26.2111 C.3     1  UNL1        0.0720
     13 C           2.8415    0.6277   26.8411 C.3     1  UNL1        0.0213
     14 C           3.1305    0.9480   28.2777 C.3     1  UNL1        0.0213
     15 C           4.0155    0.0445   29.0843 C.3     1  UNL1        0.0720
     16 C           4.6114   -1.1793   28.4543 C.3     1  UNL1        0.0213
     17 C           4.3224   -1.4997   27.0177 C.3     1  UNL1        0.0213
     18 C           4.1194   -0.5109   23.7056 C.2     1  UNL1        0.2653
     19 O           5.3794    0.2152   24.0732 O.2     1  UNL1       -0.2684
     20 N           3.1485   -0.9166   24.7745 N.am    1  UNL1       -0.3012
     21 H           2.3215   -1.3932   24.5332 H       1  UNL1        0.1497
     22 C           3.4844   -3.1558   19.1798 C.3     1  UNL1        0.0518
     23 C           3.5385   -2.0471   20.1887 C.ar    1  UNL1        0.0577
     24 C           3.9078   -2.1889   21.6357 C.ar    1  UNL1        0.0398
     25 C           3.8304   -0.8314   22.2689 C.ar    1  UNL1        0.1551
     26 N           3.4133    0.1494   21.2135 N.ar    1  UNL1       -0.1649
     27 N           3.2329   -0.6019   19.9278 N.ar    1  UNL1       -0.2527
     28 C           2.8196   -0.0117   18.6123 C.3     1  UNL1        0.1533
     29 O           4.9425   -2.2925   33.3345 O.3     1  UNL1       -0.4360
     30 C           6.1976   -2.3849   32.5183 C.ar    1  UNL1        0.1472
     31 C           7.5106   -1.9676   33.1117 C.ar    1  UNL1        0.0376
     32 C           8.7656   -2.0600   32.2955 C.ar    1  UNL1        0.0031
     33 C           8.7077   -2.5697   30.8858 C.ar    1  UNL1        0.0002
     34 C           7.3948   -2.9870   30.2925 C.ar    1  UNL1        0.0030
     35 C           6.1397   -2.8946   31.1088 C.ar    1  UNL1        0.0376
     36 C           7.3369   -3.4967   28.8829 C.ar    1  UNL1        0.0001
     37 C           6.6537   -4.7981   28.5835 C.ar    1  UNL1       -0.0003
     38 C           6.5958   -5.3078   27.1740 C.ar    1  UNL1       -0.0042
     39 C           7.2211   -4.5161   26.0639 C.ar    1  UNL1       -0.0208
     40 C           7.9043   -3.2148   26.3634 C.ar    1  UNL1       -0.0042
     41 C           7.9622   -2.7050   27.7729 C.ar    1  UNL1       -0.0003
     42 C           7.1632   -5.0258   24.6543 C.3     1  UNL1        0.0437
     43 C           8.2061   -4.6057   23.6614 C.3     1  UNL1        0.0768
     44 N           7.8558   -3.6384   22.5698 N.3     1  UNL1       -0.2723
     45 C           7.4691   -4.1471   21.2127 C.3     1  UNL1        0.0735
     46 C           7.1189   -3.1797   20.1210 C.3     1  UNL1        0.0333
     47 C           7.1553   -1.7039   20.3864 C.3     1  UNL1        0.0603
     48 C           7.5420   -1.1953   21.7435 C.3     1  UNL1        0.0333
     49 C           7.8923   -2.1625   22.8352 C.3     1  UNL1        0.0735
     50 N           6.8051   -0.7367   19.2948 N.3     1  UNL1       -0.2739
     51 C           6.6249    0.7440   19.4531 C.3     1  UNL1        0.0721
     52 C           6.2820    1.3155   18.1093 C.3     1  UNL1        0.0188
     53 C           6.2502    0.1880   17.1204 C.3     1  UNL1        0.0188
     54 C           6.5735   -1.0803   17.8531 C.3     1  UNL1        0.0721
@<TRIPOS>BOND
     1    22    23    1
     2    23    24   ar
     3    24    25   ar
     4    25    18    1
     5    18    19    2
     6    18    20   am
     7    12    20    1
     8    12    13    1
     9    13    14    1
    10    14    15    1
    11    15     8    1
    12     8     9   am
    13     9    10    2
    14     9     1    1
    15     1     2   ar
    16     2     3   ar
    17     3     4    1
    18     3     5   ar
    19     5     6   ar
    20     6     7   ar
    21     7    29    1
    22    29    30    1
    23    30    31   ar
    24    31    32   ar
    25    32    33   ar
    26    33    34   ar
    27    34    36    1
    28    36    37   ar
    29    37    38   ar
    30    38    39   ar
    31    39    42    1
    32    42    43    1
    33    43    44    1
    34    44    45    1
    35    45    46    1
    36    46    47    1
    37    47    50    1
    38    50    51    1
    39    51    52    1
    40    52    53    1
    41    53    54    1
    42    47    48    1
    43    48    49    1
    44    39    40   ar
    45    40    41   ar
    46    34    35   ar
    47    15    16    1
    48    16    17    1
    49    25    26   ar
    50    26    27   ar
    51    27    28    1
    52    27    23   ar
    53    17    12    1
    54     7     1   ar
    55    35    30   ar
    56    41    36   ar
    57    49    44    1
    58    54    50    1
    59    20    21    1
    60     8    11    1
@<TRIPOS>MOLECULE
*****
 54 60 0 0 0
SMALL
GASTEIGER

@<TRIPOS>ATOM
      1 C           3.9524    1.8514   34.8999 C.ar    1  UNL1        0.1090
      2 C           3.7845    3.1851   35.5654 C.ar    1  UNL1        0.0405
      3 C           4.0299    3.3244   37.0386 C.ar    1  UNL1        0.1596
      4 F           3.8620    4.6582   37.7041 F       1  UNL1       -0.2025
      5 C           4.4431    2.1299   37.8463 C.ar    1  UNL1        0.1316
      6 N           4.6110    0.7961   37.1808 N.ar    1  UNL1       -0.2073
      7 C           4.3656    0.6569   35.7076 C.ar    1  UNL1        0.2341
      8 N           2.7686    0.6577   32.9190 N.am    1  UNL1       -0.3024
      9 C           3.7070    1.7121   33.4266 C.2     1  UNL1        0.2504
     10 O           4.4000    2.6272   32.4611 O.2     1  UNL1       -0.2700
     11 H           2.3138    0.0571   33.5527 H       1  UNL1        0.1497
     12 C           2.0325    0.2399   28.4993 C.3     1  UNL1        0.0720
     13 C           1.3638    1.3391   29.2704 C.3     1  UNL1        0.0213
     14 C           1.6092    1.4783   30.7436 C.3     1  UNL1        0.0213
     15 C           2.5233    0.5184   31.4457 C.3     1  UNL1        0.0720
     16 C           3.1919   -0.5808   30.6746 C.3     1  UNL1        0.0213
     17 C           2.9465   -0.7201   29.2014 C.3     1  UNL1        0.0213
     18 C           2.8742    0.4384   26.0494 C.2     1  UNL1        0.2653
     19 O           4.2068    0.9156   26.5459 O.2     1  UNL1       -0.2684
     20 N           1.7871    0.1006   27.0260 N.am    1  UNL1       -0.3012
     21 H           0.9125   -0.2126   26.7001 H       1  UNL1        0.1497
     22 C           3.1051   -1.2738   21.0598 C.3     1  UNL1        0.0518
     23 C           2.7350   -0.4879   22.2826 C.ar    1  UNL1        0.0577
     24 C           3.2673   -0.7093   23.6675 C.ar    1  UNL1        0.0398
     25 C           2.6289    0.2991   24.5761 C.ar    1  UNL1        0.1551
     26 N           1.7021    1.1437   23.7529 N.ar    1  UNL1       -0.1649
     27 N           1.7677    0.6574   22.3355 N.ar    1  UNL1       -0.2527
     28 C           1.0006    1.2178   21.1747 C.3     1  UNL1        0.1533
     29 O           4.5335   -0.6769   35.0421 O.3     1  UNL1       -0.4360
     30 C           5.7641   -0.9619   34.2333 C.ar    1  UNL1        0.1472
     31 C           7.0942   -0.4305   34.6789 C.ar    1  UNL1        0.0376
     32 C           8.3249   -0.7155   33.8701 C.ar    1  UNL1        0.0031
     33 C           8.2255   -1.5319   32.6156 C.ar    1  UNL1        0.0002
     34 C           6.8955   -2.0633   32.1700 C.ar    1  UNL1        0.0030
     35 C           5.6648   -1.7783   32.9788 C.ar    1  UNL1        0.0376
     36 C           6.7961   -2.8796   30.9155 C.ar    1  UNL1        0.0001
     37 C           6.5198   -2.2076   29.6033 C.ar    1  UNL1       -0.0003
     38 C           6.4204   -3.0239   28.3488 C.ar    1  UNL1       -0.0042
     39 C           6.5973   -4.5122   28.4066 C.ar    1  UNL1       -0.0208
     40 C           6.8737   -5.1843   29.7188 C.ar    1  UNL1       -0.0042
     41 C           6.9731   -4.3680   30.9733 C.ar    1  UNL1       -0.0003
     42 C           6.4979   -5.3286   27.1520 C.3     1  UNL1        0.0437
     43 C           7.6008   -5.2803   26.1365 C.3     1  UNL1        0.0768
     44 N           7.3137   -4.8169   24.7390 N.3     1  UNL1       -0.2723
     45 C           8.1672   -5.2926   23.6009 C.3     1  UNL1        0.0735
     46 C           7.8801   -4.8292   22.2034 C.3     1  UNL1        0.0333
     47 C           6.7395   -3.8901   21.9441 C.3     1  UNL1        0.0603
     48 C           5.8861   -3.4144   23.0823 C.3     1  UNL1        0.0333
     49 C           6.1731   -3.8778   24.4797 C.3     1  UNL1        0.0735
     50 N           6.4525   -3.4268   20.5467 N.3     1  UNL1       -0.2739
     51 C           5.3190   -3.8891   19.6799 C.3     1  UNL1        0.0721
     52 C           5.4145   -3.1678   18.3682 C.3     1  UNL1        0.0188
     53 C           6.6070   -2.2596   18.4243 C.3     1  UNL1        0.0188
     54 C           7.2485   -2.4197   19.7707 C.3     1  UNL1        0.0721
@<TRIPOS>BOND
     1    22    23    1
     2    23    24   ar
     3    24    25   ar
     4    25    18    1
     5    18    19    2
     6    18    20   am
     7    12    20    1
     8    12    13    1
     9    13    14    1
    10    14    15    1
    11    15     8    1
    12     8     9   am
    13     9    10    2
    14     9     1    1
    15     1     2   ar
    16     2     3   ar
    17     3     4    1
    18     3     5   ar
    19     5     6   ar
    20     6     7   ar
    21     7    29    1
    22    29    30    1
    23    30    31   ar
    24    31    32   ar
    25    32    33   ar
    26    33    34   ar
    27    34    36    1
    28    36    37   ar
    29    37    38   ar
    30    38    39   ar
    31    39    42    1
    32    42    43    1
    33    43    44    1
    34    44    45    1
    35    45    46    1
    36    46    47    1
    37    47    50    1
    38    50    51    1
    39    51    52    1
    40    52    53    1
    41    53    54    1
    42    47    48    1
    43    48    49    1
    44    39    40   ar
    45    40    41   ar
    46    34    35   ar
    47    15    16    1
    48    16    17    1
    49    25    26   ar
    50    26    27   ar
    51    27    28    1
    52    27    23   ar
    53    17    12    1
    54     7     1   ar
    55    35    30   ar
    56    41    36   ar
    57    49    44    1
    58    54    50    1
    59    20    21    1
    60     8    11    1
@<TRIPOS>MOLECULE
*****
 54 60 0 0 0
SMALL
GASTEIGER

@<TRIPOS>ATOM
      1 C           6.9402   -4.2864   23.1527 C.ar    1  UNL1        0.1090
      2 C           7.2709   -5.3958   24.1064 C.ar    1  UNL1        0.0405
      3 C           8.5202   -6.2033   23.9134 C.ar    1  UNL1        0.1596
      4 F           8.8510   -7.3128   24.8672 F       1  UNL1       -0.2025
      5 C           9.4387   -5.9013   22.7666 C.ar    1  UNL1        0.1316
      6 N           9.1080   -4.7918   21.8129 N.ar    1  UNL1       -0.2073
      7 C           7.8587   -3.9844   22.0059 C.ar    1  UNL1        0.2341
      8 N           5.7491   -2.1704   24.0768 N.am    1  UNL1       -0.3024
      9 C           5.6909   -3.4788   23.3457 C.2     1  UNL1        0.2504
     10 O           4.3834   -3.9799   22.8077 O.2     1  UNL1       -0.2700
     11 H           6.6072   -1.8416   24.4299 H       1  UNL1        0.1497
     12 C           2.0013    0.2521   24.6559 C.3     1  UNL1        0.0720
     13 C           2.8415   -0.1242   25.8401 C.3     1  UNL1        0.0213
     14 C           4.0908   -0.9317   25.6470 C.3     1  UNL1        0.0213
     15 C           4.4998   -1.3628   24.2698 C.3     1  UNL1        0.0720
     16 C           3.6595   -0.9865   23.0856 C.3     1  UNL1        0.0213
     17 C           2.4103   -0.1790   23.2786 C.3     1  UNL1        0.0213
     18 C           0.7064    2.4899   24.3991 C.2     1  UNL1        0.2653
     19 O           1.9101    3.1126   23.7562 O.2     1  UNL1       -0.2684
     20 N           0.7520    1.0597   24.8489 N.am    1  UNL1       -0.3012
     21 H          -0.0381    0.6510   25.2708 H       1  UNL1        0.1497
     22 C          -2.8873    6.3425   24.0474 C.3     1  UNL1        0.0518
     23 C          -2.1947    5.0683   24.4304 C.ar    1  UNL1        0.0577
     24 C          -0.8393    4.6267   23.9634 C.ar    1  UNL1        0.0398
     25 C          -0.5429    3.2974   24.5921 C.ar    1  UNL1        0.1551
     26 N          -1.7150    2.9175   25.4476 N.ar    1  UNL1       -0.1649
     27 N          -2.7359    4.0119   25.3477 N.ar    1  UNL1       -0.2527
     28 C          -4.0645    4.0443   26.0429 C.3     1  UNL1        0.1533
     29 O           7.5279   -2.8748   21.0522 O.3     1  UNL1       -0.4360
     30 C           6.2346   -2.8992   20.2928 C.ar    1  UNL1        0.1472
     31 C           5.7089   -4.1943   19.7483 C.ar    1  UNL1        0.0376
     32 C           4.4155   -4.2187   18.9890 C.ar    1  UNL1        0.0031
     33 C           3.6478   -2.9480   18.7742 C.ar    1  UNL1        0.0002
     34 C           4.1735   -1.6530   19.3187 C.ar    1  UNL1        0.0030
     35 C           5.4669   -1.6286   20.0780 C.ar    1  UNL1        0.0376
     36 C           3.4059   -0.3823   19.1039 C.ar    1  UNL1        0.0001
     37 C           4.1195    0.8582   18.6544 C.ar    1  UNL1       -0.0003
     38 C           3.3519    2.1289   18.4396 C.ar    1  UNL1       -0.0042
     39 C           1.8707    2.1591   18.6743 C.ar    1  UNL1       -0.0208
     40 C           1.1571    0.9186   19.1238 C.ar    1  UNL1       -0.0042
     41 C           1.9247   -0.3520   19.3386 C.ar    1  UNL1       -0.0003
     42 C           1.1031    3.4298   18.4595 C.3     1  UNL1        0.0437
     43 C          -0.2649    3.3850   17.8458 C.3     1  UNL1        0.0768
     44 N          -1.4778    3.6054   18.7003 N.3     1  UNL1       -0.2723
     45 C          -2.7519    4.0988   18.0811 C.3     1  UNL1        0.0735
     46 C          -3.9648    4.3192   18.9357 C.3     1  UNL1        0.0333
     47 C          -3.9037    4.0463   20.4094 C.3     1  UNL1        0.0603
     48 C          -2.6296    3.5530   21.0286 C.3     1  UNL1        0.0333
     49 C          -1.4167    3.3325   20.1741 C.3     1  UNL1        0.0735
     50 N          -5.1166    4.2668   21.2639 N.3     1  UNL1       -0.2739
     51 C          -6.2517    5.1990   20.9598 C.3     1  UNL1        0.0721
     52 C          -7.2440    5.1022   22.0804 C.3     1  UNL1        0.0188
     53 C          -6.7222    4.1100   23.0772 C.3     1  UNL1        0.0188
     54 C          -5.4074    3.5937   22.5725 C.3     1  UNL1        0.0721
@<TRIPOS>BOND
     1    22    23    1
     2    23    24   ar
     3    24    25   ar
     4    25    18    1
     5    18    19    2
     6    18    20   am
     7    12    20    1
     8    12    13    1
     9    13    14    1
    10    14    15    1
    11    15     8    1
    12     8     9   am
    13     9    10    2
    14     9     1    1
    15     1     2   ar
    16     2     3   ar
    17     3     4    1
    18     3     5   ar
    19     5     6   ar
    20     6     7   ar
    21     7    29    1
    22    29    30    1
    23    30    31   ar
    24    31    32   ar
    25    32    33   ar
    26    33    34   ar
    27    34    36    1
    28    36    37   ar
    29    37    38   ar
    30    38    39   ar
    31    39    42    1
    32    42    43    1
    33    43    44    1
    34    44    45    1
    35    45    46    1
    36    46    47    1
    37    47    50    1
    38    50    51    1
    39    51    52    1
    40    52    53    1
    41    53    54    1
    42    47    48    1
    43    48    49    1
    44    39    40   ar
    45    40    41   ar
    46    34    35   ar
    47    15    16    1
    48    16    17    1
    49    25    26   ar
    50    26    27   ar
    51    27    28    1
    52    27    23   ar
    53    17    12    1
    54     7     1   ar
    55    35    30   ar
    56    41    36   ar
    57    49    44    1
    58    54    50    1
    59    20    21    1
    60     8    11    1
@<TRIPOS>MOLECULE
*****
 54 60 0 0 0
SMALL
GASTEIGER

@<TRIPOS>ATOM
      1 C          -3.8475    3.7185   23.7889 C.ar    1  UNL1        0.1090
      2 C          -5.3374    3.6764   23.9579 C.ar    1  UNL1        0.0405
      3 C          -6.2331    3.9556   22.7876 C.ar    1  UNL1        0.1596
      4 F          -7.7230    3.9135   22.9566 F       1  UNL1       -0.2025
      5 C          -5.6389    4.2769   21.4483 C.ar    1  UNL1        0.1316
      6 N          -4.1491    4.3190   21.2793 N.ar    1  UNL1       -0.2073
      7 C          -3.2534    4.0398   22.4496 C.ar    1  UNL1        0.2341
      8 N          -1.5628    2.9198   24.7336 N.am    1  UNL1       -0.3024
      9 C          -2.9517    3.4393   24.9593 C.2     1  UNL1        0.2504
     10 O          -3.4449    3.6796   26.3554 O.2     1  UNL1       -0.2700
     11 H          -1.2391    2.7620   23.8173 H       1  UNL1        0.1497
     12 C           1.1245    2.0822   28.2445 C.3     1  UNL1        0.0720
     13 C           0.9901    3.4810   27.7198 C.3     1  UNL1        0.0213
     14 C           0.0943    3.7601   26.5495 C.3     1  UNL1        0.0213
     15 C          -0.6670    2.6405   25.9039 C.3     1  UNL1        0.0720
     16 C          -0.5327    1.2418   26.4286 C.3     1  UNL1        0.0213
     17 C           0.3631    0.9626   27.5989 C.3     1  UNL1        0.0213
     18 C           1.4262    1.4918   30.7566 C.2     1  UNL1        0.2653
     19 O          -0.0636    1.4598   30.9280 O.2     1  UNL1       -0.2684
     20 N           2.0203    1.8030   29.4149 N.am    1  UNL1       -0.3012
     21 H           2.9981    1.8240   29.3024 H       1  UNL1        0.1497
     22 C           5.1768   -0.6125   33.8203 C.3     1  UNL1        0.0518
     23 C           4.0460    0.2453   33.3352 C.ar    1  UNL1        0.0577
     24 C           3.4075    0.1787   31.9794 C.ar    1  UNL1        0.0398
     25 C           2.3220    1.2126   31.9269 C.ar    1  UNL1        0.1551
     26 N           2.2896    1.9182   33.2502 N.ar    1  UNL1       -0.1649
     27 N           3.3550    1.3205   34.1205 N.ar    1  UNL1       -0.2527
     28 C           3.6735    1.7265   35.5289 C.3     1  UNL1        0.1533
     29 O          -1.7635    4.0818   22.2806 O.3     1  UNL1       -0.4360
     30 C          -1.1519    3.7900   20.9424 C.ar    1  UNL1        0.1472
     31 C          -1.4856    4.6523   19.7612 C.ar    1  UNL1        0.0376
     32 C          -0.8741    4.3605   18.4230 C.ar    1  UNL1        0.0031
     33 C           0.0712    3.2064   18.2660 C.ar    1  UNL1        0.0002
     34 C           0.4048    2.3442   19.4472 C.ar    1  UNL1        0.0030
     35 C          -0.2067    2.6360   20.7854 C.ar    1  UNL1        0.0376
     36 C           1.3501    1.1900   19.2901 C.ar    1  UNL1        0.0001
     37 C           1.1522   -0.0570   20.0999 C.ar    1  UNL1       -0.0003
     38 C           2.0974   -1.2111   19.9430 C.ar    1  UNL1       -0.0042
     39 C           3.2404   -1.1181   18.9762 C.ar    1  UNL1       -0.0208
     40 C           3.4383    0.1289   18.1664 C.ar    1  UNL1       -0.0042
     41 C           2.4931    1.2830   18.3234 C.ar    1  UNL1       -0.0003
     42 C           4.1857   -2.2723   18.8192 C.3     1  UNL1        0.0437
     43 C           5.4132   -2.3583   19.6769 C.3     1  UNL1        0.0768
     44 N           5.2985   -2.2226   21.1663 N.3     1  UNL1       -0.2723
     45 C           5.0500   -3.4355   22.0131 C.3     1  UNL1        0.0735
     46 C           4.9353   -3.2997   23.5026 C.3     1  UNL1        0.0333
     47 C           5.0690   -1.9510   24.1452 C.3     1  UNL1        0.0603
     48 C           5.3175   -0.7380   23.2984 C.3     1  UNL1        0.0333
     49 C           5.4322   -0.8738   21.8090 C.3     1  UNL1        0.0735
     50 N           4.9543   -1.8152   25.6346 N.3     1  UNL1       -0.2739
     51 C           3.8361   -1.1435   26.3751 C.3     1  UNL1        0.0721
     52 C           4.1283   -1.2404   27.8432 C.3     1  UNL1        0.0188
     53 C           5.4271   -1.9721   28.0100 C.3     1  UNL1        0.0188
     54 C           5.9376   -2.3273   26.6450 C.3     1  UNL1        0.0721
@<TRIPOS>BOND
     1    22    23    1
     2    23    24   ar
     3    24    25   ar
     4    25    18    1
     5    18    19    2
     6    18    20   am
     7    12    20    1
     8    12    13    1
     9    13    14    1
    10    14    15    1
    11    15     8    1
    12     8     9   am
    13     9    10    2
    14     9     1    1
    15     1     2   ar
    16     2     3   ar
    17     3     4    1
    18     3     5   ar
    19     5     6   ar
    20     6     7   ar
    21     7    29    1
    22    29    30    1
    23    30    31   ar
    24    31    32   ar
    25    32    33   ar
    26    33    34   ar
    27    34    36    1
    28    36    37   ar
    29    37    38   ar
    30    38    39   ar
    31    39    42    1
    32    42    43    1
    33    43    44    1
    34    44    45    1
    35    45    46    1
    36    46    47    1
    37    47    50    1
    38    50    51    1
    39    51    52    1
    40    52    53    1
    41    53    54    1
    42    47    48    1
    43    48    49    1
    44    39    40   ar
    45    40    41   ar
    46    34    35   ar
    47    15    16    1
    48    16    17    1
    49    25    26   ar
    50    26    27   ar
    51    27    28    1
    52    27    23   ar
    53    17    12    1
    54     7     1   ar
    55    35    30   ar
    56    41    36   ar
    57    49    44    1
    58    54    50    1
    59    20    21    1
    60     8    11    1
@<TRIPOS>MOLECULE
*****
 54 60 0 0 0
SMALL
GASTEIGER

@<TRIPOS>ATOM
      1 C           4.2252   -0.8221   30.5522 C.ar    1  UNL1        0.1090
      2 C           3.7329   -1.1207   31.9373 C.ar    1  UNL1        0.0405
      3 C           4.7029   -1.5280   33.0064 C.ar    1  UNL1        0.1596
      4 F           4.2107   -1.8267   34.3915 F       1  UNL1       -0.2025
      5 C           6.1652   -1.6368   32.6904 C.ar    1  UNL1        0.1316
      6 N           6.6575   -1.3382   31.3053 N.ar    1  UNL1       -0.2073
      7 C           5.6875   -0.9308   30.2362 C.ar    1  UNL1        0.2341
      8 N           2.5316    0.8952   29.5863 N.am    1  UNL1       -0.3024
      9 C           3.2551   -0.4147   29.4830 C.2     1  UNL1        0.2504
     10 O           3.0086   -1.3172   28.3105 O.2     1  UNL1       -0.2700
     11 H           2.6934    1.4876   30.3559 H       1  UNL1        0.1497
     12 C          -0.3784    2.1174   26.3788 C.3     1  UNL1        0.0720
     13 C           1.0527    2.5601   26.3013 C.3     1  UNL1        0.0213
     14 C           2.0226    2.1527   27.3705 C.3     1  UNL1        0.0213
     15 C           1.5615    1.3026   28.5171 C.3     1  UNL1        0.0720
     16 C           0.1305    0.8600   28.5946 C.3     1  UNL1        0.0213
     17 C          -0.8395    1.2674   27.5255 C.3     1  UNL1        0.0213
     18 C          -2.3884    3.5666   25.5979 C.2     1  UNL1        0.2653
     19 O          -2.4584    4.2010   26.9553 O.2     1  UNL1       -0.2684
     20 N          -1.3484    2.5248   25.3096 N.am    1  UNL1       -0.3012
     21 H          -1.3025    2.1085   24.4187 H       1  UNL1        0.1497
     22 C          -6.8266    4.1267   22.7925 C.3     1  UNL1        0.0518
     23 C          -5.3985    4.2314   23.2392 C.ar    1  UNL1        0.0577
     24 C          -4.8141    3.6156   24.4760 C.ar    1  UNL1        0.0398
     25 C          -3.3585    3.9740   24.5287 C.ar    1  UNL1        0.1551
     26 N          -3.0432    4.8111   23.3247 N.ar    1  UNL1       -0.1649
     27 N          -4.3040    4.9702   22.5277 N.ar    1  UNL1       -0.2527
     28 C          -4.4454    5.7340   21.2446 C.3     1  UNL1        0.1533
     29 O           6.1797   -0.6322   28.8511 O.3     1  UNL1       -0.4360
     30 C           6.5549   -1.7552   27.9301 C.ar    1  UNL1        0.1472
     31 C           7.5015   -2.8220   28.3950 C.ar    1  UNL1        0.0376
     32 C           7.8766   -3.9450   27.4740 C.ar    1  UNL1        0.0031
     33 C           7.3052   -4.0012   26.0882 C.ar    1  UNL1        0.0002
     34 C           6.3587   -2.9344   25.6234 C.ar    1  UNL1        0.0030
     35 C           5.9836   -1.8114   26.5444 C.ar    1  UNL1        0.0376
     36 C           5.7873   -2.9906   24.2376 C.ar    1  UNL1        0.0001
     37 C           6.4610   -3.8158   23.1815 C.ar    1  UNL1       -0.0003
     38 C           5.8896   -3.8720   21.7958 C.ar    1  UNL1       -0.0042
     39 C           4.6447   -3.1030   21.4661 C.ar    1  UNL1       -0.0208
     40 C           3.9711   -2.2778   22.5221 C.ar    1  UNL1       -0.0042
     41 C           4.5424   -2.2216   23.9079 C.ar    1  UNL1       -0.0003
     42 C           4.0733   -3.1592   20.0802 C.3     1  UNL1        0.0437
     43 C           4.2382   -1.9916   19.1531 C.3     1  UNL1        0.0768
     44 N           3.2117   -0.8980   19.1344 N.3     1  UNL1       -0.2723
     45 C           3.4857    0.3752   18.3902 C.3     1  UNL1        0.0735
     46 C           2.4592    1.4688   18.3715 C.3     1  UNL1        0.0333
     47 C           1.1587    1.2892   19.0970 C.3     1  UNL1        0.0603
     48 C           0.8847    0.0161   19.8413 C.3     1  UNL1        0.0333
     49 C           1.9112   -1.0775   19.8600 C.3     1  UNL1        0.0735
     50 N           0.1323    2.3828   19.0783 N.3     1  UNL1       -0.2739
     51 C          -0.7622    2.7721   20.2178 C.3     1  UNL1        0.0721
     52 C          -1.6272    3.9090   19.7606 C.3     1  UNL1        0.0188
     53 C          -1.2674    4.2224   18.3384 C.3     1  UNL1        0.0188
     54 C          -0.1800    3.2792   17.9168 C.3     1  UNL1        0.0721
@<TRIPOS>BOND
     1    22    23    1
     2    23    24   ar
     3    24    25   ar
     4    25    18    1
     5    18    19    2
     6    18    20   am
     7    12    20    1
     8    12    13    1
     9    13    14    1
    10    14    15    1
    11    15     8    1
    12     8     9   am
    13     9    10    2
    14     9     1    1
    15     1     2   ar
    16     2     3   ar
    17     3     4    1
    18     3     5   ar
    19     5     6   ar
    20     6     7   ar
    21     7    29    1
    22    29    30    1
    23    30    31   ar
    24    31    32   ar
    25    32    33   ar
    26    33    34   ar
    27    34    36    1
    28    36    37   ar
    29    37    38   ar
    30    38    39   ar
    31    39    42    1
    32    42    43    1
    33    43    44    1
    34    44    45    1
    35    45    46    1
    36    46    47    1
    37    47    50    1
    38    50    51    1
    39    51    52    1
    40    52    53    1
    41    53    54    1
    42    47    48    1
    43    48    49    1
    44    39    40   ar
    45    40    41   ar
    46    34    35   ar
    47    15    16    1
    48    16    17    1
    49    25    26   ar
    50    26    27   ar
    51    27    28    1
    52    27    23   ar
    53    17    12    1
    54     7     1   ar
    55    35    30   ar
    56    41    36   ar
    57    49    44    1
    58    54    50    1
    59    20    21    1
    60     8    11    1
@<TRIPOS>MOLECULE
*****
 54 60 0 0 0
SMALL
GASTEIGER

@<TRIPOS>ATOM
      1 C           2.2824    1.1005   31.7093 C.ar    1  UNL1        0.1090
      2 C           2.4512    1.9794   32.9131 C.ar    1  UNL1        0.0405
      3 C           3.4435    1.6124   33.9764 C.ar    1  UNL1        0.1596
      4 F           3.6124    2.4913   35.1802 F       1  UNL1       -0.2025
      5 C           4.2669    0.3665   33.8359 C.ar    1  UNL1        0.1316
      6 N           4.0981   -0.5124   32.6322 N.ar    1  UNL1       -0.2073
      7 C           3.1059   -0.1454   31.5689 C.ar    1  UNL1        0.2341
      8 N           1.7678    1.9646   29.3138 N.am    1  UNL1       -0.3024
      9 C           1.2901    1.4675   30.6459 C.2     1  UNL1        0.2504
     10 O          -0.1798    1.3374   30.9148 O.2     1  UNL1       -0.2700
     11 H           2.7326    2.0500   29.1373 H       1  UNL1        0.1497
     12 C          -1.2090    3.0656   26.1237 C.3     1  UNL1        0.0720
     13 C          -0.7762    4.0892   27.1311 C.3     1  UNL1        0.0213
     14 C           0.2161    3.7222   28.1944 C.3     1  UNL1        0.0213
     15 C           0.7755    2.3316   28.2504 C.3     1  UNL1        0.0720
     16 C           0.3427    1.3079   27.2430 C.3     1  UNL1        0.0213
     17 C          -0.6495    1.6750   26.1797 C.3     1  UNL1        0.0213
     18 C          -3.6322    3.6928   25.4274 C.2     1  UNL1        0.2653
     19 O          -4.0709    3.5860   26.8578 O.2     1  UNL1       -0.2684
     20 N          -2.2013    3.4326   25.0603 N.am    1  UNL1       -0.3012
     21 H          -1.9134    3.5027   24.1215 H       1  UNL1        0.1497
     22 C          -6.1563    3.9814   20.7985 C.3     1  UNL1        0.0518
     23 C          -5.7847    4.1924   22.2363 C.ar    1  UNL1        0.0577
     24 C          -4.6143    3.5763   22.9441 C.ar    1  UNL1        0.0398
     25 C          -4.6245    4.0598   24.3640 C.ar    1  UNL1        0.1551
     26 N          -5.8010    4.9746   24.5338 N.ar    1  UNL1       -0.1649
     27 N          -6.5181    5.0565   23.2189 N.ar    1  UNL1       -0.2527
     28 C          -7.7518    5.8613   22.9362 C.3     1  UNL1        0.1533
     29 O           2.9370   -1.0243   30.3651 O.3     1  UNL1       -0.4360
     30 C           3.8979   -0.9180   29.2182 C.ar    1  UNL1        0.1472
     31 C           5.3718   -0.8246   29.4808 C.ar    1  UNL1        0.0376
     32 C           6.3327   -0.7183   28.3339 C.ar    1  UNL1        0.0031
     33 C           5.8197   -0.7054   26.9243 C.ar    1  UNL1        0.0002
     34 C           4.3458   -0.7987   26.6618 C.ar    1  UNL1        0.0030
     35 C           3.3849   -0.9050   27.8087 C.ar    1  UNL1        0.0376
     36 C           3.8328   -0.7858   25.2523 C.ar    1  UNL1        0.0001
     37 C           4.3674   -1.7660   24.2505 C.ar    1  UNL1       -0.0003
     38 C           3.8544   -1.7531   22.8411 C.ar    1  UNL1       -0.0042
     39 C           2.8068   -0.7600   22.4333 C.ar    1  UNL1       -0.0208
     40 C           2.2722    0.2201   23.4351 C.ar    1  UNL1       -0.0042
     41 C           2.7851    0.2072   24.8445 C.ar    1  UNL1       -0.0003
     42 C           2.2937   -0.7471   21.0238 C.3     1  UNL1        0.0437
     43 C           2.5320    0.4485   20.1499 C.3     1  UNL1        0.0768
     44 N           1.4060    1.3917   19.8460 N.3     1  UNL1       -0.2723
     45 C           0.2549    1.5175   20.7995 C.3     1  UNL1        0.0735
     46 C          -0.8712    2.4607   20.4956 C.3     1  UNL1        0.0333
     47 C          -0.8461    3.2782   19.2382 C.3     1  UNL1        0.0603
     48 C           0.3049    3.1525   18.2847 C.3     1  UNL1        0.0333
     49 C           1.4310    2.2093   18.5886 C.3     1  UNL1        0.0735
     50 N          -1.9722    4.2214   18.9344 N.3     1  UNL1       -0.2739
     51 C          -2.4944    5.2932   19.8445 C.3     1  UNL1        0.0721
     52 C          -3.6187    5.9927   19.1397 C.3     1  UNL1        0.0188
     53 C          -3.7913    5.3530   17.7938 C.3     1  UNL1        0.0188
     54 C          -2.7737    4.2584   17.6670 C.3     1  UNL1        0.0721
@<TRIPOS>BOND
     1    22    23    1
     2    23    24   ar
     3    24    25   ar
     4    25    18    1
     5    18    19    2
     6    18    20   am
     7    12    20    1
     8    12    13    1
     9    13    14    1
    10    14    15    1
    11    15     8    1
    12     8     9   am
    13     9    10    2
    14     9     1    1
    15     1     2   ar
    16     2     3   ar
    17     3     4    1
    18     3     5   ar
    19     5     6   ar
    20     6     7   ar
    21     7    29    1
    22    29    30    1
    23    30    31   ar
    24    31    32   ar
    25    32    33   ar
    26    33    34   ar
    27    34    36    1
    28    36    37   ar
    29    37    38   ar
    30    38    39   ar
    31    39    42    1
    32    42    43    1
    33    43    44    1
    34    44    45    1
    35    45    46    1
    36    46    47    1
    37    47    50    1
    38    50    51    1
    39    51    52    1
    40    52    53    1
    41    53    54    1
    42    47    48    1
    43    48    49    1
    44    39    40   ar
    45    40    41   ar
    46    34    35   ar
    47    15    16    1
    48    16    17    1
    49    25    26   ar
    50    26    27   ar
    51    27    28    1
    52    27    23   ar
    53    17    12    1
    54     7     1   ar
    55    35    30   ar
    56    41    36   ar
    57    49    44    1
    58    54    50    1
    59    20    21    1
    60     8    11    1
