@<TRIPOS>MOLECULE
*****
 26 28 0 0 0
SMALL
GASTEIGER

@<TRIPOS>ATOM
      1 S          -8.2866  -19.0780   20.8130 S.3     1  UNL1       -0.0724
      2 C          -9.5135  -18.8819   21.6534 C.ar    1  UNL1        0.1719
      3 N          -9.6966  -19.3459   23.0680 N.ar    1  UNL1       -0.2211
      4 C         -11.0690  -18.9381   23.5157 C.ar    1  UNL1        0.0992
      5 C         -11.7990  -19.1263   24.8125 C.ar    1  UNL1        0.0206
      6 C         -13.1940  -18.5984   24.9713 C.ar    1  UNL1        0.0016
      7 C         -13.8590  -17.8823   23.8333 C.ar    1  UNL1        0.0016
      8 C         -13.1290  -17.6941   22.5365 C.ar    1  UNL1        0.0188
      9 C         -11.7340  -18.2220   22.3777 C.ar    1  UNL1        0.0795
     10 N         -10.7726  -18.1873   21.2268 N.ar    1  UNL1       -0.3011
     11 C         -11.0260  -17.5668   19.8848 C.3     1  UNL1        0.1496
     12 C         -11.1450  -16.0771   19.7578 C.2     1  UNL1        0.0733
     13 O         -10.1105  -15.1862   20.3792 O.co2   1  UNL1       -0.5472
     14 O         -12.2986  -15.4779   19.0092 O.co2   1  UNL1       -0.5472
     15 C          -7.0265  -19.6015   21.4361 C.3     1  UNL1        0.0943
     16 C          -4.6053  -18.8577   22.0143 C.ar    1  UNL1        0.1355
     17 C          -3.6665  -17.9178   22.7109 C.ar    1  UNL1        0.0367
     18 C          -4.2100  -16.7819   23.5258 C.ar    1  UNL1        0.0059
     19 C          -5.6925  -16.5858   23.6443 C.ar    1  UNL1        0.0346
     20 C          -6.6313  -17.5257   22.9477 C.ar    1  UNL1        0.0024
     21 C          -6.0877  -18.6617   22.1327 C.ar    1  UNL1        0.0232
     22 C          -6.2360  -15.4499   24.4593 C.2     1  UNL1        0.1735
     23 C          -7.6928  -15.1010   24.3817 C.3     1  UNL1        0.0773
     24 O          -5.3228  -14.6629   25.3518 O.2     1  UNL1       -0.2913
     25 C          -3.6156  -19.7571   19.7868 C.3     1  UNL1        0.2525
     26 O          -4.0618  -19.9936   21.1993 O.3     1  UNL1       -0.4717
@<TRIPOS>UNITY_ATOM_ATTR
13 1
charge -1
@<TRIPOS>BOND
     1    25    26    1
     2    26    16    1
     3    16    17   ar
     4    17    18   ar
     5    18    19   ar
     6    19    22    1
     7    22    23    1
     8    22    24    2
     9    19    20   ar
    10    20    21   ar
    11    21    15    1
    12    15     1    1
    13     1     2    1
    14     2     3   ar
    15     3     4   ar
    16     4     5   ar
    17     5     6   ar
    18     6     7   ar
    19     7     8   ar
    20     8     9   ar
    21     9    10   ar
    22    10    11    1
    23    11    12    1
    24    12    13   ar
    25    12    14   ar
    26    21    16   ar
    27    10     2   ar
    28     9     4   ar
@<TRIPOS>MOLECULE
*****
 26 28 0 0 0
SMALL
GASTEIGER

@<TRIPOS>ATOM
      1 S          -6.5262  -19.2484   22.3447 S.3     1  UNL1       -0.0724
      2 C          -5.2182  -18.8179   21.7500 C.ar    1  UNL1        0.1719
      3 N          -4.6860  -19.2191   20.4062 N.ar    1  UNL1       -0.2211
      4 C          -3.3516  -18.5597   20.2203 C.ar    1  UNL1        0.0992
      5 C          -2.3651  -18.5913   19.0908 C.ar    1  UNL1        0.0206
      6 C          -1.0861  -17.8140   19.1902 C.ar    1  UNL1        0.0016
      7 C          -0.7935  -17.0053   20.4192 C.ar    1  UNL1        0.0016
      8 C          -1.7800  -16.9737   21.5487 C.ar    1  UNL1        0.0188
      9 C          -3.0590  -17.7510   21.4492 C.ar    1  UNL1        0.0795
     10 N          -4.2126  -17.9105   22.3946 N.ar    1  UNL1       -0.3011
     11 C          -4.3385  -17.2744   23.7472 C.3     1  UNL1        0.1496
     12 C          -5.0455  -15.9598   23.8949 C.2     1  UNL1        0.0733
     13 O          -6.1012  -15.7899   24.9469 O.co2   1  UNL1       -0.5472
     14 O          -4.6968  -14.8149   22.9906 O.co2   1  UNL1       -0.5472
     15 C          -7.5215  -19.9950   21.5069 C.3     1  UNL1        0.0943
     16 C          -9.4652  -19.1890   19.9829 C.ar    1  UNL1        0.1355
     17 C         -10.8605  -18.6610   19.8272 C.ar    1  UNL1        0.0367
     18 C         -11.7074  -18.4109   21.0397 C.ar    1  UNL1        0.0059
     19 C         -11.1591  -18.6889   22.4079 C.ar    1  UNL1        0.0346
     20 C          -9.7638  -19.2169   22.5637 C.ar    1  UNL1        0.0024
     21 C          -8.9168  -19.4670   21.3511 C.ar    1  UNL1        0.0232
     22 C         -12.0060  -18.4388   23.6204 C.2     1  UNL1        0.1735
     23 C         -13.3540  -17.7971   23.4743 C.3     1  UNL1        0.0773
     24 O         -11.5051  -18.8303   24.9790 O.2     1  UNL1       -0.2913
     25 C          -8.7407  -20.7346   18.0243 C.3     1  UNL1        0.2525
     26 O          -8.6182  -19.4391   18.7705 O.3     1  UNL1       -0.4717
@<TRIPOS>UNITY_ATOM_ATTR
13 1
charge -1
@<TRIPOS>BOND
     1    25    26    1
     2    26    16    1
     3    16    17   ar
     4    17    18   ar
     5    18    19   ar
     6    19    22    1
     7    22    23    1
     8    22    24    2
     9    19    20   ar
    10    20    21   ar
    11    21    15    1
    12    15     1    1
    13     1     2    1
    14     2     3   ar
    15     3     4   ar
    16     4     5   ar
    17     5     6   ar
    18     6     7   ar
    19     7     8   ar
    20     8     9   ar
    21     9    10   ar
    22    10    11    1
    23    11    12    1
    24    12    13   ar
    25    12    14   ar
    26    21    16   ar
    27    10     2   ar
    28     9     4   ar
@<TRIPOS>MOLECULE
*****
 26 28 0 0 0
SMALL
GASTEIGER

@<TRIPOS>ATOM
      1 S          -6.2231  -19.7708   21.9854 S.3     1  UNL1       -0.0724
      2 C          -4.9534  -19.1924   21.4347 C.ar    1  UNL1        0.1719
      3 N          -4.4525  -19.3437   20.0289 N.ar    1  UNL1       -0.2211
      4 C          -3.1511  -18.6060   19.9185 C.ar    1  UNL1        0.0992
      5 C          -2.2033  -18.4087   18.7729 C.ar    1  UNL1        0.0206
      6 C          -0.9520  -17.6042   18.9648 C.ar    1  UNL1        0.0016
      7 C          -0.6485  -16.9969   20.3024 C.ar    1  UNL1        0.0016
      8 C          -1.5963  -17.1942   21.4480 C.ar    1  UNL1        0.0188
      9 C          -2.8477  -17.9987   21.2561 C.ar    1  UNL1        0.0795
     10 N          -3.9615  -18.3611   22.1932 N.ar    1  UNL1       -0.3011
     11 C          -4.0652  -17.9623   23.6355 C.3     1  UNL1        0.1496
     12 C          -4.4824  -16.5685   24.0001 C.2     1  UNL1        0.0733
     13 O          -4.4402  -15.4791   22.9697 O.co2   1  UNL1       -0.5472
     14 O          -4.9420  -16.2638   25.3951 O.co2   1  UNL1       -0.5472
     15 C          -7.5451  -19.3706   21.4005 C.3     1  UNL1        0.0943
     16 C          -9.9389  -18.5517   21.9912 C.ar    1  UNL1        0.1355
     17 C         -10.8458  -17.6282   22.7492 C.ar    1  UNL1        0.0367
     18 C         -10.2657  -16.6001   23.6747 C.ar    1  UNL1        0.0059
     19 C          -8.7787  -16.4955   23.8421 C.ar    1  UNL1        0.0346
     20 C          -7.8718  -17.4190   23.0841 C.ar    1  UNL1        0.0024
     21 C          -8.4519  -18.4471   22.1585 C.ar    1  UNL1        0.0232
     22 C          -8.1987  -15.4674   24.7676 C.2     1  UNL1        0.1735
     23 C          -8.4800  -15.5392   26.2393 C.3     1  UNL1        0.0773
     24 O          -7.3373  -14.3675   24.2215 O.2     1  UNL1       -0.2913
     25 C         -10.6890  -19.2665   19.6086 C.3     1  UNL1        0.2525
     26 O         -10.5189  -19.5798   21.0657 O.3     1  UNL1       -0.4717
@<TRIPOS>UNITY_ATOM_ATTR
13 1
charge -1
@<TRIPOS>BOND
     1    25    26    1
     2    26    16    1
     3    16    17   ar
     4    17    18   ar
     5    18    19   ar
     6    19    22    1
     7    22    23    1
     8    22    24    2
     9    19    20   ar
    10    20    21   ar
    11    21    15    1
    12    15     1    1
    13     1     2    1
    14     2     3   ar
    15     3     4   ar
    16     4     5   ar
    17     5     6   ar
    18     6     7   ar
    19     7     8   ar
    20     8     9   ar
    21     9    10   ar
    22    10    11    1
    23    11    12    1
    24    12    13   ar
    25    12    14   ar
    26    21    16   ar
    27    10     2   ar
    28     9     4   ar
@<TRIPOS>MOLECULE
*****
 26 28 0 0 0
SMALL
GASTEIGER

@<TRIPOS>ATOM
      1 S          -6.6358  -19.2083   22.2038 S.3     1  UNL1       -0.0724
      2 C          -5.3100  -18.7880   21.6420 C.ar    1  UNL1        0.1719
      3 N          -4.7761  -19.1397   20.2850 N.ar    1  UNL1       -0.2211
      4 C          -3.4215  -18.5113   20.1428 C.ar    1  UNL1        0.0992
      5 C          -2.4250  -18.5173   19.0217 C.ar    1  UNL1        0.0206
      6 C          -1.1252  -17.7834   19.1697 C.ar    1  UNL1        0.0016
      7 C          -0.8220  -17.0434   20.4387 C.ar    1  UNL1        0.0016
      8 C          -1.8185  -17.0374   21.5598 C.ar    1  UNL1        0.0188
      9 C          -3.1182  -17.7713   21.4119 C.ar    1  UNL1        0.0795
     10 N          -4.2854  -17.9424   22.3384 N.ar    1  UNL1       -0.3011
     11 C          -4.4067  -17.3685   23.7189 C.3     1  UNL1        0.1496
     12 C          -5.0193  -16.0137   23.9169 C.2     1  UNL1        0.0733
     13 O          -4.6237  -14.8741   23.0253 O.co2   1  UNL1       -0.5472
     14 O          -6.0275  -15.7984   25.0064 O.co2   1  UNL1       -0.5472
     15 C          -7.6131  -18.1725   22.6749 C.3     1  UNL1        0.0943
     16 C          -9.9651  -19.2529   22.4497 C.ar    1  UNL1        0.1355
     17 C         -11.3581  -19.2283   21.8939 C.ar    1  UNL1        0.0367
     18 C         -11.7921  -18.0988   21.0075 C.ar    1  UNL1        0.0059
     19 C         -10.8331  -16.9937   20.6769 C.ar    1  UNL1        0.0346
     20 C          -9.4401  -17.0183   21.2327 C.ar    1  UNL1        0.0024
     21 C          -9.0061  -18.1479   22.1191 C.ar    1  UNL1        0.0232
     22 C         -11.2672  -15.8642   19.7905 C.2     1  UNL1        0.1735
     23 C         -12.6906  -15.7806   19.3248 C.3     1  UNL1        0.0773
     24 O         -10.2778  -14.8181   19.3699 O.2     1  UNL1       -0.2913
     25 C          -9.9010  -20.3799   24.7897 C.3     1  UNL1        0.2525
     26 O          -9.5311  -20.3825   23.3360 O.3     1  UNL1       -0.4717
@<TRIPOS>UNITY_ATOM_ATTR
13 1
charge -1
@<TRIPOS>BOND
     1    25    26    1
     2    26    16    1
     3    16    17   ar
     4    17    18   ar
     5    18    19   ar
     6    19    22    1
     7    22    23    1
     8    22    24    2
     9    19    20   ar
    10    20    21   ar
    11    21    15    1
    12    15     1    1
    13     1     2    1
    14     2     3   ar
    15     3     4   ar
    16     4     5   ar
    17     5     6   ar
    18     6     7   ar
    19     7     8   ar
    20     8     9   ar
    21     9    10   ar
    22    10    11    1
    23    11    12    1
    24    12    13   ar
    25    12    14   ar
    26    21    16   ar
    27    10     2   ar
    28     9     4   ar
@<TRIPOS>MOLECULE
*****
 26 28 0 0 0
SMALL
GASTEIGER

@<TRIPOS>ATOM
      1 S          -7.3492  -19.3375   20.4957 S.3     1  UNL1       -0.0724
      2 C          -6.9258  -18.4026   21.5896 C.ar    1  UNL1        0.1719
      3 N          -7.7037  -17.2220   22.0907 N.ar    1  UNL1       -0.2211
      4 C          -6.9089  -16.5740   23.1854 C.ar    1  UNL1        0.0992
      5 C          -7.1768  -15.3744   24.0451 C.ar    1  UNL1        0.0206
      6 C          -6.1756  -14.9548   25.0802 C.ar    1  UNL1        0.0016
      7 C          -4.9065  -15.7349   25.2557 C.ar    1  UNL1        0.0016
      8 C          -4.6386  -16.9345   24.3960 C.ar    1  UNL1        0.0188
      9 C          -5.6398  -17.3540   23.3609 C.ar    1  UNL1        0.0795
     10 N          -5.6503  -18.4842   22.3746 N.ar    1  UNL1       -0.3011
     11 C          -4.5740  -19.5150   22.2035 C.3     1  UNL1        0.1496
     12 C          -3.3822  -19.2190   21.3423 C.2     1  UNL1        0.0733
     13 O          -2.1646  -20.0917   21.4211 O.co2   1  UNL1       -0.5472
     14 O          -3.4076  -18.0504   20.4022 O.co2   1  UNL1       -0.5472
     15 C          -8.7298  -19.9239   20.5027 C.3     1  UNL1        0.0943
     16 C         -10.6755  -19.4074   22.1450 C.ar    1  UNL1        0.1355
     17 C         -11.8477  -18.5613   22.5452 C.ar    1  UNL1        0.0367
     18 C         -12.2464  -17.3858   21.7032 C.ar    1  UNL1        0.0059
     19 C         -11.4729  -17.0562   20.4609 C.ar    1  UNL1        0.0346
     20 C         -10.3007  -17.9023   20.0607 C.ar    1  UNL1        0.0024
     21 C          -9.9020  -19.0779   20.9028 C.ar    1  UNL1        0.0232
     22 C         -11.8716  -15.8807   19.6188 C.2     1  UNL1        0.1735
     23 C         -10.8299  -15.1159   18.8572 C.3     1  UNL1        0.0773
     24 O         -13.3120  -15.4699   19.5384 O.2     1  UNL1       -0.2913
     25 C          -9.5583  -20.3659   24.2859 C.3     1  UNL1        0.2525
     26 O         -10.2767  -20.5829   22.9871 O.3     1  UNL1       -0.4717
@<TRIPOS>UNITY_ATOM_ATTR
13 1
charge -1
@<TRIPOS>BOND
     1    25    26    1
     2    26    16    1
     3    16    17   ar
     4    17    18   ar
     5    18    19   ar
     6    19    22    1
     7    22    23    1
     8    22    24    2
     9    19    20   ar
    10    20    21   ar
    11    21    15    1
    12    15     1    1
    13     1     2    1
    14     2     3   ar
    15     3     4   ar
    16     4     5   ar
    17     5     6   ar
    18     6     7   ar
    19     7     8   ar
    20     8     9   ar
    21     9    10   ar
    22    10    11    1
    23    11    12    1
    24    12    13   ar
    25    12    14   ar
    26    21    16   ar
    27    10     2   ar
    28     9     4   ar
@<TRIPOS>MOLECULE
*****
 26 28 0 0 0
SMALL
GASTEIGER

@<TRIPOS>ATOM
      1 S         -13.5699   -5.3642   20.0460 S.3     1  UNL1       -0.0724
      2 C         -12.9381   -4.2123   19.3222 C.ar    1  UNL1        0.1719
      3 N         -13.3202   -2.7683   19.4596 N.ar    1  UNL1       -0.2211
      4 C         -12.4315   -1.9656   18.5562 C.ar    1  UNL1        0.0992
      5 C         -12.3501   -0.4941   18.2772 C.ar    1  UNL1        0.0206
      6 C         -11.3373    0.0295   17.3026 C.ar    1  UNL1        0.0016
      7 C         -10.4059   -0.9184   16.6069 C.ar    1  UNL1        0.0016
      8 C         -10.4874   -2.3900   16.8859 C.ar    1  UNL1        0.0188
      9 C         -11.5002   -2.9136   17.8605 C.ar    1  UNL1        0.0795
     10 N         -11.8132   -4.3020   18.3340 N.ar    1  UNL1       -0.3011
     11 C         -11.1227   -5.5595   17.8960 C.3     1  UNL1        0.1496
     12 C          -9.9640   -6.0928   18.6852 C.2     1  UNL1        0.0733
     13 O          -9.2079   -5.1877   19.6122 O.co2   1  UNL1       -0.5472
     14 O          -9.5613   -7.5312   18.5476 O.co2   1  UNL1       -0.5472
     15 C         -14.5610   -6.2410   19.3398 C.3     1  UNL1        0.0943
     16 C         -17.0379   -6.9861   19.0952 C.ar    1  UNL1        0.1355
     17 C         -18.5025   -6.6700   19.1653 C.ar    1  UNL1        0.0367
     18 C         -18.9549   -5.2926   19.5499 C.ar    1  UNL1        0.0059
     19 C         -17.9426   -4.2312   19.8646 C.ar    1  UNL1        0.0346
     20 C         -16.4780   -4.5473   19.7945 C.ar    1  UNL1        0.0024
     21 C         -16.0256   -5.9248   19.4098 C.ar    1  UNL1        0.0232
     22 C         -18.3951   -2.8538   20.2493 C.2     1  UNL1        0.1735
     23 C         -17.8642   -1.6578   19.5158 C.3     1  UNL1        0.0773
     24 O         -19.3783   -2.6723   21.3674 O.2     1  UNL1       -0.2913
     25 C         -16.7628   -9.5056   19.6668 C.3     1  UNL1        0.2525
     26 O         -16.5855   -8.3635   18.7106 O.3     1  UNL1       -0.4717
@<TRIPOS>UNITY_ATOM_ATTR
13 1
charge -1
@<TRIPOS>BOND
     1    25    26    1
     2    26    16    1
     3    16    17   ar
     4    17    18   ar
     5    18    19   ar
     6    19    22    1
     7    22    23    1
     8    22    24    2
     9    19    20   ar
    10    20    21   ar
    11    21    15    1
    12    15     1    1
    13     1     2    1
    14     2     3   ar
    15     3     4   ar
    16     4     5   ar
    17     5     6   ar
    18     6     7   ar
    19     7     8   ar
    20     8     9   ar
    21     9    10   ar
    22    10    11    1
    23    11    12    1
    24    12    13   ar
    25    12    14   ar
    26    21    16   ar
    27    10     2   ar
    28     9     4   ar
@<TRIPOS>MOLECULE
*****
 26 28 0 0 0
SMALL
GASTEIGER

@<TRIPOS>ATOM
      1 S          -6.9308  -19.0225   21.7459 S.3     1  UNL1       -0.0724
      2 C          -5.5277  -18.7470   21.2925 C.ar    1  UNL1        0.1719
      3 N          -4.9875  -18.9712   19.9113 N.ar    1  UNL1       -0.2211
      4 C          -3.5444  -18.5618   19.9058 C.ar    1  UNL1        0.0992
      5 C          -2.5052  -18.5620   18.8242 C.ar    1  UNL1        0.0206
      6 C          -1.1143  -18.0848   19.1205 C.ar    1  UNL1        0.0016
      7 C          -0.7627  -17.6076   20.4984 C.ar    1  UNL1        0.0016
      8 C          -1.8020  -17.6075   21.5800 C.ar    1  UNL1        0.0188
      9 C          -3.1928  -18.0846   21.2838 C.ar    1  UNL1        0.0795
     10 N          -4.4186  -18.1991   22.1407 N.ar    1  UNL1       -0.3011
     11 C          -4.5177  -17.8303   23.5913 C.3     1  UNL1        0.1496
     12 C          -4.7107  -16.3971   23.9894 C.2     1  UNL1        0.0733
     13 O          -4.5306  -15.3063   22.9755 O.co2   1  UNL1       -0.5472
     14 O          -5.0839  -16.0544   25.4012 O.co2   1  UNL1       -0.5472
     15 C          -7.9727  -17.9471   21.6562 C.3     1  UNL1        0.0943
     16 C          -8.0235  -15.4742   22.4511 C.ar    1  UNL1        0.1355
     17 C          -8.1586  -14.4668   23.5543 C.ar    1  UNL1        0.0367
     18 C          -8.3778  -14.9249   24.9656 C.ar    1  UNL1        0.0059
     19 C          -8.4621  -16.3906   25.2739 C.ar    1  UNL1        0.0346
     20 C          -8.3270  -17.3980   24.1708 C.ar    1  UNL1        0.0024
     21 C          -8.1077  -16.9397   22.7594 C.ar    1  UNL1        0.0232
     22 C          -8.6813  -16.8487   26.6853 C.2     1  UNL1        0.1735
     23 C          -8.2322  -15.9906   27.8307 C.3     1  UNL1        0.0773
     24 O          -9.3497  -18.1649   26.9513 O.2     1  UNL1       -0.2913
     25 C          -8.7489  -14.0323   20.4152 C.3     1  UNL1        0.2525
     26 O          -7.8043  -15.0161   21.0398 O.3     1  UNL1       -0.4717
@<TRIPOS>UNITY_ATOM_ATTR
13 1
charge -1
@<TRIPOS>BOND
     1    25    26    1
     2    26    16    1
     3    16    17   ar
     4    17    18   ar
     5    18    19   ar
     6    19    22    1
     7    22    23    1
     8    22    24    2
     9    19    20   ar
    10    20    21   ar
    11    21    15    1
    12    15     1    1
    13     1     2    1
    14     2     3   ar
    15     3     4   ar
    16     4     5   ar
    17     5     6   ar
    18     6     7   ar
    19     7     8   ar
    20     8     9   ar
    21     9    10   ar
    22    10    11    1
    23    11    12    1
    24    12    13   ar
    25    12    14   ar
    26    21    16   ar
    27    10     2   ar
    28     9     4   ar
@<TRIPOS>MOLECULE
*****
 26 28 0 0 0
SMALL
GASTEIGER

@<TRIPOS>ATOM
      1 S         -14.0565   -4.4457   20.1529 S.3     1  UNL1       -0.0724
      2 C         -12.9336   -4.1739   19.1963 C.ar    1  UNL1        0.1719
      3 N         -12.5741   -2.8386   18.6150 N.ar    1  UNL1       -0.2211
      4 C         -11.3913   -3.0292   17.7124 C.ar    1  UNL1        0.0992
      5 C         -10.6047   -2.0673   16.8722 C.ar    1  UNL1        0.0206
      6 C          -9.4464   -2.5585   16.0555 C.ar    1  UNL1        0.0016
      7 C          -9.0749   -4.0115   16.0788 C.ar    1  UNL1        0.0016
      8 C          -9.8615   -4.9734   16.9190 C.ar    1  UNL1        0.0188
      9 C         -11.0198   -4.4822   17.7358 C.ar    1  UNL1        0.0795
     10 N         -11.9729   -5.1897   18.6528 N.ar    1  UNL1       -0.3011
     11 C         -11.9665   -6.6556   18.9707 C.3     1  UNL1        0.1496
     12 C         -12.4397   -7.6467   17.9490 C.2     1  UNL1        0.0733
     13 O         -11.6132   -7.9164   16.7266 O.co2   1  UNL1       -0.5472
     14 O         -13.7394   -8.3681   18.1497 O.co2   1  UNL1       -0.5472
     15 C         -15.4444   -3.9752   19.8334 C.3     1  UNL1        0.0943
     16 C         -17.9872   -4.5002   19.7420 C.ar    1  UNL1        0.1355
     17 C         -19.1051   -5.4924   19.6158 C.ar    1  UNL1        0.0367
     18 C         -18.7980   -6.9517   19.4548 C.ar    1  UNL1        0.0059
     19 C         -17.3730   -7.4190   19.4200 C.ar    1  UNL1        0.0346
     20 C         -16.2551   -6.4268   19.5462 C.ar    1  UNL1        0.0024
     21 C         -16.5623   -4.9674   19.7072 C.ar    1  UNL1        0.0232
     22 C         -17.0659   -8.8783   19.2590 C.2     1  UNL1        0.1735
     23 C         -17.5565   -9.6191   18.0503 C.3     1  UNL1        0.0773
     24 O         -16.2683   -9.5969   20.3065 O.2     1  UNL1       -0.2913
     25 C         -19.7068   -2.5529   19.7733 C.3     1  UNL1        0.2525
     26 O         -18.2943   -3.0409   19.9030 O.3     1  UNL1       -0.4717
@<TRIPOS>UNITY_ATOM_ATTR
13 1
charge -1
@<TRIPOS>BOND
     1    25    26    1
     2    26    16    1
     3    16    17   ar
     4    17    18   ar
     5    18    19   ar
     6    19    22    1
     7    22    23    1
     8    22    24    2
     9    19    20   ar
    10    20    21   ar
    11    21    15    1
    12    15     1    1
    13     1     2    1
    14     2     3   ar
    15     3     4   ar
    16     4     5   ar
    17     5     6   ar
    18     6     7   ar
    19     7     8   ar
    20     8     9   ar
    21     9    10   ar
    22    10    11    1
    23    11    12    1
    24    12    13   ar
    25    12    14   ar
    26    21    16   ar
    27    10     2   ar
    28     9     4   ar
@<TRIPOS>MOLECULE
*****
 26 28 0 0 0
SMALL
GASTEIGER

@<TRIPOS>ATOM
      1 S         -14.5278   -4.8181   19.4898 S.3     1  UNL1       -0.0724
      2 C         -13.6959   -3.6917   18.9519 C.ar    1  UNL1        0.1719
      3 N         -14.0124   -2.2299   19.0649 N.ar    1  UNL1       -0.2211
      4 C         -12.9136   -1.4641   18.3894 C.ar    1  UNL1        0.0992
      5 C         -12.6911    0.0056   18.1888 C.ar    1  UNL1        0.0206
      6 C         -11.4729    0.4868   17.4577 C.ar    1  UNL1        0.0016
      7 C         -10.4773   -0.5018   16.9272 C.ar    1  UNL1        0.0016
      8 C         -10.6999   -1.9716   17.1278 C.ar    1  UNL1        0.0188
      9 C         -11.9181   -2.4527   17.8589 C.ar    1  UNL1        0.0795
     10 N         -12.4015   -3.8294   18.2065 N.ar    1  UNL1       -0.3011
     11 C         -11.7117   -5.1177   17.8682 C.3     1  UNL1        0.1496
     12 C         -10.6147   -5.6353   18.7505 C.2     1  UNL1        0.0733
     13 O         -10.4963   -7.1071   19.0151 O.co2   1  UNL1       -0.5472
     14 O          -9.6358   -4.6812   19.3682 O.co2   1  UNL1       -0.5472
     15 C         -15.6284   -5.4027   18.6551 C.3     1  UNL1        0.0943
     16 C         -15.3729   -7.9677   18.9792 C.ar    1  UNL1        0.1355
     17 C         -15.9658   -9.2965   19.3438 C.ar    1  UNL1        0.0367
     18 C         -17.4071   -9.3889   19.7489 C.ar    1  UNL1        0.0059
     19 C         -18.2556   -8.1525   19.7893 C.ar    1  UNL1        0.0346
     20 C         -17.6627   -6.8238   19.4248 C.ar    1  UNL1        0.0024
     21 C         -16.2213   -6.7314   19.0197 C.ar    1  UNL1        0.0232
     22 C         -19.6969   -8.2449   20.1944 C.2     1  UNL1        0.1735
     23 C         -20.4636   -9.5118   19.9547 C.3     1  UNL1        0.0773
     24 O         -20.3715   -7.0706   20.8391 O.2     1  UNL1       -0.2913
     25 C         -13.5218   -8.2268   17.1747 C.3     1  UNL1        0.2525
     26 O         -13.9316   -7.8753   18.5742 O.3     1  UNL1       -0.4717
@<TRIPOS>UNITY_ATOM_ATTR
13 1
charge -1
@<TRIPOS>BOND
     1    25    26    1
     2    26    16    1
     3    16    17   ar
     4    17    18   ar
     5    18    19   ar
     6    19    22    1
     7    22    23    1
     8    22    24    2
     9    19    20   ar
    10    20    21   ar
    11    21    15    1
    12    15     1    1
    13     1     2    1
    14     2     3   ar
    15     3     4   ar
    16     4     5   ar
    17     5     6   ar
    18     6     7   ar
    19     7     8   ar
    20     8     9   ar
    21     9    10   ar
    22    10    11    1
    23    11    12    1
    24    12    13   ar
    25    12    14   ar
    26    21    16   ar
    27    10     2   ar
    28     9     4   ar
