@<TRIPOS>MOLECULE
*****
 34 37 0 0 0
SMALL
GASTEIGER

@<TRIPOS>ATOM
      1 C           1.9063    1.5442   32.5821 C.ar    1  UNL1        0.1390
      2 C           1.2842    1.8303   31.2476 C.ar    1  UNL1        0.0733
      3 C           1.7293    1.0692   30.0340 C.ar    1  UNL1        0.1679
      4 N           2.7964    0.0221   30.1551 N.ar    1  UNL1       -0.2047
      5 C           3.4185   -0.2640   31.4897 C.ar    1  UNL1        0.2001
      6 N           2.9735    0.4971   32.7032 N.ar    1  UNL1       -0.2088
      7 N           1.1071    1.3553   28.6994 N.ar    1  UNL1       -0.2164
      8 N           1.6542    2.2785   27.6513 N.ar    1  UNL1       -0.1684
      9 C           0.7139    2.2622   26.4827 C.ar    1  UNL1        0.0805
     10 C           0.8737    3.0422   25.2115 C.3     1  UNL1        0.0540
     11 C          -0.4143    1.3289   26.8086 C.ar    1  UNL1        0.0312
     12 C          -0.1713    0.7684   28.1786 C.ar    1  UNL1        0.0637
     13 C          -1.0520   -0.2076   28.9009 C.3     1  UNL1        0.0522
     14 C           4.4857   -1.3112   31.6107 C.ar    1  UNL1        0.1805
     15 C           4.7287   -2.1886   32.8028 C.ar    1  UNL1        0.0434
     16 C           5.8904   -3.0845   32.4898 C.ar    1  UNL1        0.0362
     17 C           6.3653   -2.7607   31.1042 C.ar    1  UNL1        0.1234
     18 C           7.5077   -3.4176   30.3878 C.3     1  UNL1        0.0725
     19 O           5.4971   -1.6648   30.5610 O.2     1  UNL1       -0.4546
     20 C           2.1909    3.5485   34.2106 C.2     1  UNL1        0.2316
     21 O           3.3656    4.0306   33.4120 O.2     1  UNL1       -0.2744
     22 N           1.4613    2.3053   33.7957 N.am    1  UNL1       -0.2689
     23 H           0.6903    1.9889   34.3198 H       1  UNL1        0.1563
     24 C           1.7458    4.3096   35.4242 C.3     1  UNL1        0.1119
     25 C           3.8434    4.8698   38.7463 C.ar    1  UNL1        0.1415
     26 C           3.1949    5.1291   37.4189 C.ar    1  UNL1        0.0333
     27 C           2.3943    4.0502   36.7517 C.ar    1  UNL1       -0.0071
     28 C           2.2423    2.7120   37.4120 C.ar    1  UNL1        0.0333
     29 C           2.8907    2.4527   38.7394 C.ar    1  UNL1        0.1415
     30 C           3.6913    3.5316   39.4066 C.ar    1  UNL1        0.0737
     31 C           4.0016    7.2630   39.7450 C.3     1  UNL1        0.2525
     32 O           4.6439    5.9487   39.4135 O.3     1  UNL1       -0.4713
     33 O           2.7387    1.1144   39.3998 O.3     1  UNL1       -0.4713
     34 C           1.4093    0.4198   39.3897 C.3     1  UNL1        0.2525
@<TRIPOS>BOND
     1    31    32    1
     2    32    25    1
     3    25    26   ar
     4    26    27   ar
     5    27    24    1
     6    24    20    1
     7    20    21    2
     8    20    22   am
     9    22     1    1
    10     1     2   ar
    11     2     3   ar
    12     3     7    1
    13     7     8   ar
    14     8     9   ar
    15     9    10    1
    16     9    11   ar
    17    11    12   ar
    18    12    13    1
    19     3     4   ar
    20     4     5   ar
    21     5    14    1
    22    14    15   ar
    23    15    16   ar
    24    16    17   ar
    25    17    18    1
    26    17    19   ar
    27     5     6   ar
    28    27    28   ar
    29    28    29   ar
    30    29    33    1
    31    33    34    1
    32    29    30   ar
    33    30    25   ar
    34     6     1   ar
    35    12     7   ar
    36    19    14   ar
    37    22    23    1
@<TRIPOS>MOLECULE
*****
 34 37 0 0 0
SMALL
GASTEIGER

@<TRIPOS>ATOM
      1 C           5.2894   -2.7665   24.2058 C.ar    1  UNL1        0.1390
      2 C           5.1774   -2.3291   22.7754 C.ar    1  UNL1        0.0733
      3 C           5.9647   -3.0348   21.7114 C.ar    1  UNL1        0.1679
      4 N           6.8641   -4.1779   22.0778 N.ar    1  UNL1       -0.2047
      5 C           6.9761   -4.6154   23.5082 C.ar    1  UNL1        0.2001
      6 N           6.1888   -3.9097   24.5722 N.ar    1  UNL1       -0.2088
      7 N           5.8526   -2.5973   20.2809 N.ar    1  UNL1       -0.2164
      8 N           6.4185   -1.3365   19.6976 N.ar    1  UNL1       -0.1684
      9 C           6.0706   -1.3037   18.2389 C.ar    1  UNL1        0.0805
     10 C           6.4390   -0.2206   17.2688 C.3     1  UNL1        0.0540
     11 C           5.2897   -2.5443   17.9207 C.ar    1  UNL1        0.0312
     12 C           5.1550   -3.3437   19.1827 C.ar    1  UNL1        0.0637
     13 C           4.4470   -4.6587   19.3221 C.3     1  UNL1        0.0522
     14 C           7.8755   -5.7586   23.8746 C.ar    1  UNL1        0.1805
     15 C           8.7731   -6.5099   22.9366 C.ar    1  UNL1        0.0434
     16 C           9.4876   -7.5668   23.7256 C.ar    1  UNL1        0.0362
     17 C           9.0315   -7.4687   25.1513 C.ar    1  UNL1        0.1234
     18 C           9.4911   -8.3358   26.2857 C.3     1  UNL1        0.0725
     19 O           8.0352   -6.3511   25.2434 O.2     1  UNL1       -0.4546
     20 C           4.9394   -0.7106   25.7552 C.2     1  UNL1        0.2316
     21 O           6.1642   -0.0661   25.1767 O.2     1  UNL1       -0.2744
     22 N           4.5021   -2.0608   25.2697 N.am    1  UNL1       -0.2689
     23 H           3.6982   -2.4838   25.6494 H       1  UNL1        0.1563
     24 C           4.1521   -0.0049   26.8192 C.3     1  UNL1        0.1119
     25 C           0.9140    1.1907   24.8609 C.ar    1  UNL1        0.1415
     26 C           2.3201    0.7480   25.1379 C.ar    1  UNL1        0.0333
     27 C           2.7459    0.4378   26.5423 C.ar    1  UNL1       -0.0071
     28 C           1.7656    0.5704   27.6698 C.ar    1  UNL1        0.0333
     29 C           0.3594    1.0131   27.3929 C.ar    1  UNL1        0.1415
     30 C          -0.0664    1.3233   25.9885 C.ar    1  UNL1        0.0737
     31 C          -0.2567    2.7690   23.1613 C.3     1  UNL1        0.2525
     32 O           0.4882    1.5009   23.4565 O.3     1  UNL1       -0.4713
     33 O          -0.6210    1.1456   28.5205 O.3     1  UNL1       -0.4713
     34 C          -1.4875   -0.0179   28.9016 C.3     1  UNL1        0.2525
@<TRIPOS>BOND
     1    31    32    1
     2    32    25    1
     3    25    26   ar
     4    26    27   ar
     5    27    24    1
     6    24    20    1
     7    20    21    2
     8    20    22   am
     9    22     1    1
    10     1     2   ar
    11     2     3   ar
    12     3     7    1
    13     7     8   ar
    14     8     9   ar
    15     9    10    1
    16     9    11   ar
    17    11    12   ar
    18    12    13    1
    19     3     4   ar
    20     4     5   ar
    21     5    14    1
    22    14    15   ar
    23    15    16   ar
    24    16    17   ar
    25    17    18    1
    26    17    19   ar
    27     5     6   ar
    28    27    28   ar
    29    28    29   ar
    30    29    33    1
    31    33    34    1
    32    29    30   ar
    33    30    25   ar
    34     6     1   ar
    35    12     7   ar
    36    19    14   ar
    37    22    23    1
@<TRIPOS>MOLECULE
*****
 34 37 0 0 0
SMALL
GASTEIGER

@<TRIPOS>ATOM
      1 C           2.1238    1.4822   32.8153 C.ar    1  UNL1        0.1390
      2 C           3.3456    0.6121   32.8129 C.ar    1  UNL1        0.0733
      3 C           3.7347   -0.1311   31.5694 C.ar    1  UNL1        0.1679
      4 N           2.9019   -0.0042   30.3283 N.ar    1  UNL1       -0.2047
      5 C           1.6800    0.8659   30.3307 C.ar    1  UNL1        0.2001
      6 N           1.2909    1.6091   31.5742 N.ar    1  UNL1       -0.2088
      7 N           4.9566   -1.0012   31.5670 N.ar    1  UNL1       -0.2164
      8 N           6.1486   -0.8447   30.6700 N.ar    1  UNL1       -0.1684
      9 C           7.1297   -1.9273   31.0098 C.ar    1  UNL1        0.0805
     10 C           8.4625   -2.1459   30.3572 C.3     1  UNL1        0.0540
     11 C           6.5440   -2.7528   32.1169 C.ar    1  UNL1        0.0312
     12 C           5.2010   -2.1804   32.4612 C.ar    1  UNL1        0.0637
     13 C           4.2664   -2.6967   33.5148 C.3     1  UNL1        0.0522
     14 C           0.8472    0.9927   29.0896 C.ar    1  UNL1        0.1805
     15 C          -0.6512    1.0316   29.0334 C.ar    1  UNL1        0.0434
     16 C          -1.0579    1.1659   27.5959 C.ar    1  UNL1        0.0362
     17 C           0.1892    1.2101   26.7635 C.ar    1  UNL1        0.1234
     18 C           0.2485    1.3387   25.2702 C.3     1  UNL1        0.0725
     19 O           1.3666    1.1030   27.6867 O.2     1  UNL1       -0.4546
     20 C           1.9584    3.7058   34.1487 C.2     1  UNL1        0.2316
     21 O           2.5712    4.4432   32.9950 O.2     1  UNL1       -0.2744
     22 N           1.7347    2.2254   34.0588 N.am    1  UNL1       -0.2689
     23 H           1.3325    1.7414   34.8160 H       1  UNL1        0.1563
     24 C           1.5693    4.4490   35.3922 C.3     1  UNL1        0.1119
     25 C           2.2036    2.8834   38.9834 C.ar    1  UNL1        0.1415
     26 C           1.5446    3.2115   37.6765 C.ar    1  UNL1        0.0333
     27 C           2.2284    4.1210   36.6992 C.ar    1  UNL1       -0.0071
     28 C           3.5712    4.7024   37.0287 C.ar    1  UNL1        0.0333
     29 C           4.2302    4.3744   38.3356 C.ar    1  UNL1        0.1415
     30 C           3.5464    3.4649   39.3130 C.ar    1  UNL1        0.0737
     31 C           1.1838    0.5662   39.5667 C.3     1  UNL1        0.2525
     32 O           1.5198    1.9739   39.9607 O.3     1  UNL1       -0.4713
     33 O           5.5732    4.9559   38.6653 O.3     1  UNL1       -0.4713
     34 C           5.9155    5.2948   40.0858 C.3     1  UNL1        0.2525
@<TRIPOS>BOND
     1    31    32    1
     2    32    25    1
     3    25    26   ar
     4    26    27   ar
     5    27    24    1
     6    24    20    1
     7    20    21    2
     8    20    22   am
     9    22     1    1
    10     1     2   ar
    11     2     3   ar
    12     3     7    1
    13     7     8   ar
    14     8     9   ar
    15     9    10    1
    16     9    11   ar
    17    11    12   ar
    18    12    13    1
    19     3     4   ar
    20     4     5   ar
    21     5    14    1
    22    14    15   ar
    23    15    16   ar
    24    16    17   ar
    25    17    18    1
    26    17    19   ar
    27     5     6   ar
    28    27    28   ar
    29    28    29   ar
    30    29    33    1
    31    33    34    1
    32    29    30   ar
    33    30    25   ar
    34     6     1   ar
    35    12     7   ar
    36    19    14   ar
    37    22    23    1
@<TRIPOS>MOLECULE
*****
 34 37 0 0 0
SMALL
GASTEIGER

@<TRIPOS>ATOM
      1 C           2.1290    1.5636   32.9498 C.ar    1  UNL1        0.1390
      2 C           3.3996    0.7671   32.9809 C.ar    1  UNL1        0.0733
      3 C           3.8503    0.0260   31.7571 C.ar    1  UNL1        0.1679
      4 N           3.0304    0.0814   30.5023 N.ar    1  UNL1       -0.2047
      5 C           1.7597    0.8780   30.4712 C.ar    1  UNL1        0.2001
      6 N           1.3090    1.6191   31.6950 N.ar    1  UNL1       -0.2088
      7 N           5.1210   -0.7706   31.7881 N.ar    1  UNL1       -0.2164
      8 N           6.3877   -0.4387   31.0565 N.ar    1  UNL1       -0.1684
      9 C           7.3977   -1.5018   31.3724 C.ar    1  UNL1        0.0805
     10 C           8.8033   -1.5649   30.8528 C.3     1  UNL1        0.0540
     11 C           6.7550   -2.4908   32.2993 C.ar    1  UNL1        0.0312
     12 C           5.3480   -2.0389   32.5562 C.ar    1  UNL1        0.0637
     13 C           4.3442   -2.7332   33.4280 C.3     1  UNL1        0.0522
     14 C           0.9397    0.9334   29.2164 C.ar    1  UNL1        0.1805
     15 C          -0.5449    0.7405   29.1241 C.ar    1  UNL1        0.0434
     16 C          -0.9418    0.8793   27.6843 C.ar    1  UNL1        0.0362
     17 C           0.2976    1.1581   26.8866 C.ar    1  UNL1        0.1234
     18 C           0.3628    1.3669   25.4026 C.3     1  UNL1        0.0725
     19 O           1.4605    1.1916   27.8336 O.2     1  UNL1       -0.4546
     20 C           2.0267    3.7538   34.3437 C.2     1  UNL1        0.2316
     21 O           2.8258    4.4617   33.2899 O.2     1  UNL1       -0.2744
     22 N           1.6784    2.3048   34.1736 N.am    1  UNL1       -0.2689
     23 H           1.1539    1.8401   34.8652 H       1  UNL1        0.1563
     24 C           1.5761    4.4949   35.5675 C.3     1  UNL1        0.1119
     25 C           3.7925    5.0868   38.8058 C.ar    1  UNL1        0.1415
     26 C           3.1121    5.3266   37.4908 C.ar    1  UNL1        0.0333
     27 C           2.2566    4.2550   36.8826 C.ar    1  UNL1       -0.0071
     28 C           2.0815    2.9437   37.5895 C.ar    1  UNL1        0.0333
     29 C           2.7620    2.7039   38.9045 C.ar    1  UNL1        0.1415
     30 C           3.6175    3.7754   39.5127 C.ar    1  UNL1        0.0737
     31 C           4.6312    7.5455   38.8435 C.3     1  UNL1        0.2525
     32 O           4.6481    6.1583   39.4140 O.3     1  UNL1       -0.4713
     33 O           2.5870    1.3925   39.6114 O.3     1  UNL1       -0.4713
     34 C           1.4338    0.4996   39.2609 C.3     1  UNL1        0.2525
@<TRIPOS>BOND
     1    31    32    1
     2    32    25    1
     3    25    26   ar
     4    26    27   ar
     5    27    24    1
     6    24    20    1
     7    20    21    2
     8    20    22   am
     9    22     1    1
    10     1     2   ar
    11     2     3   ar
    12     3     7    1
    13     7     8   ar
    14     8     9   ar
    15     9    10    1
    16     9    11   ar
    17    11    12   ar
    18    12    13    1
    19     3     4   ar
    20     4     5   ar
    21     5    14    1
    22    14    15   ar
    23    15    16   ar
    24    16    17   ar
    25    17    18    1
    26    17    19   ar
    27     5     6   ar
    28    27    28   ar
    29    28    29   ar
    30    29    33    1
    31    33    34    1
    32    29    30   ar
    33    30    25   ar
    34     6     1   ar
    35    12     7   ar
    36    19    14   ar
    37    22    23    1
@<TRIPOS>MOLECULE
*****
 34 37 0 0 0
SMALL
GASTEIGER

@<TRIPOS>ATOM
      1 C           0.7933    0.6305   21.1358 C.ar    1  UNL1        0.1390
      2 C           1.5964   -0.2817   20.2566 C.ar    1  UNL1        0.0733
      3 C           2.7473   -1.0542   20.8298 C.ar    1  UNL1        0.1679
      4 N           3.0953   -0.9145   22.2822 N.ar    1  UNL1       -0.2047
      5 C           2.2922   -0.0023   23.1614 C.ar    1  UNL1        0.2001
      6 N           1.1412    0.7702   22.5883 N.ar    1  UNL1       -0.2088
      7 N           3.5504   -1.9664   19.9505 N.ar    1  UNL1       -0.2164
      8 N           3.5189   -3.4659   19.9733 N.ar    1  UNL1       -0.1684
      9 C           4.4749   -3.9655   18.9310 C.ar    1  UNL1        0.0805
     10 C           4.7587   -5.4034   18.6117 C.3     1  UNL1        0.0540
     11 C           5.0973   -2.7747   18.2641 C.ar    1  UNL1        0.0312
     12 C           4.5259   -1.5392   18.8942 C.ar    1  UNL1        0.0637
     13 C           4.8697   -0.1249   18.5317 C.3     1  UNL1        0.0522
     14 C           2.6402    0.1374   24.6138 C.ar    1  UNL1        0.1805
     15 C           2.2818    1.2941   25.4990 C.ar    1  UNL1        0.0434
     16 C           2.8277    1.0165   26.8682 C.ar    1  UNL1        0.0362
     17 C           3.5235   -0.3118   26.8293 C.ar    1  UNL1        0.1234
     18 C           4.2140   -0.9795   27.9814 C.3     1  UNL1        0.0725
     19 O           3.4076   -0.8551   25.4360 O.2     1  UNL1       -0.4546
     20 C          -0.2067    2.8660   20.2686 C.2     1  UNL1        0.2316
     21 O           1.0953    3.5567   20.5476 O.2     1  UNL1       -0.2744
     22 N          -0.3577    1.4030   20.5627 N.am    1  UNL1       -0.2689
     23 H          -1.2122    0.9497   20.3795 H       1  UNL1        0.1563
     24 C          -1.3577    3.6385   19.6954 C.3     1  UNL1        0.1119
     25 C          -4.1225    3.5531   22.5413 C.ar    1  UNL1        0.1415
     26 C          -2.7831    3.5924   21.8671 C.ar    1  UNL1        0.0333
     27 C          -2.6971    3.5993   20.3696 C.ar    1  UNL1       -0.0071
     28 C          -3.9505    3.5670   19.5462 C.ar    1  UNL1        0.0333
     29 C          -5.2899    3.5278   20.2204 C.ar    1  UNL1        0.1415
     30 C          -5.3758    3.5208   21.7179 C.ar    1  UNL1        0.0737
     31 C          -2.9546    3.5481   24.8620 C.3     1  UNL1        0.2525
     32 O          -4.2085    3.5462   24.0388 O.3     1  UNL1       -0.4713
     33 O          -6.5433    3.4955   19.3970 O.3     1  UNL1       -0.4713
     34 C          -7.1509    4.7758   18.9054 C.3     1  UNL1        0.2525
@<TRIPOS>BOND
     1    31    32    1
     2    32    25    1
     3    25    26   ar
     4    26    27   ar
     5    27    24    1
     6    24    20    1
     7    20    21    2
     8    20    22   am
     9    22     1    1
    10     1     2   ar
    11     2     3   ar
    12     3     7    1
    13     7     8   ar
    14     8     9   ar
    15     9    10    1
    16     9    11   ar
    17    11    12   ar
    18    12    13    1
    19     3     4   ar
    20     4     5   ar
    21     5    14    1
    22    14    15   ar
    23    15    16   ar
    24    16    17   ar
    25    17    18    1
    26    17    19   ar
    27     5     6   ar
    28    27    28   ar
    29    28    29   ar
    30    29    33    1
    31    33    34    1
    32    29    30   ar
    33    30    25   ar
    34     6     1   ar
    35    12     7   ar
    36    19    14   ar
    37    22    23    1
@<TRIPOS>MOLECULE
*****
 34 37 0 0 0
SMALL
GASTEIGER

@<TRIPOS>ATOM
      1 C           0.8237    0.5693   21.3131 C.ar    1  UNL1        0.1390
      2 C           1.6083   -0.3204   20.3952 C.ar    1  UNL1        0.0733
      3 C           2.7810   -1.0936   20.9215 C.ar    1  UNL1        0.1679
      4 N           3.1690   -0.9771   22.3657 N.ar    1  UNL1       -0.2047
      5 C           2.3843   -0.0873   23.2837 C.ar    1  UNL1        0.2001
      6 N           1.2117    0.6859   22.7574 N.ar    1  UNL1       -0.2088
      7 N           3.5657   -1.9834   20.0035 N.ar    1  UNL1       -0.2164
      8 N           3.5653   -3.4834   20.0164 N.ar    1  UNL1       -0.1684
      9 C           4.4878   -3.9565   18.9324 C.ar    1  UNL1        0.0805
     10 C           4.7873   -5.3861   18.5911 C.3     1  UNL1        0.0540
     11 C           5.0584   -2.7489   18.2495 C.ar    1  UNL1        0.0312
     12 C           4.4884   -1.5295   18.9115 C.ar    1  UNL1        0.0637
     13 C           4.7885   -0.1061   18.5458 C.3     1  UNL1        0.0522
     14 C           2.7724    0.0293   24.7279 C.ar    1  UNL1        0.1805
     15 C           2.3754    1.1346   25.6610 C.ar    1  UNL1        0.0434
     16 C           2.9832    0.8494   27.0024 C.ar    1  UNL1        0.0362
     17 C           3.7558   -0.4321   26.8983 C.ar    1  UNL1        0.1234
     18 C           4.5238   -1.0911   28.0056 C.3     1  UNL1        0.0725
     19 O           3.6254   -0.9390   25.4926 O.2     1  UNL1       -0.4546
     20 C          -0.2327    2.8210   20.5623 C.2     1  UNL1        0.2316
     21 O           1.0563    3.5264   20.8641 O.2     1  UNL1       -0.2744
     22 N          -0.3490    1.3425   20.7868 N.am    1  UNL1       -0.2689
     23 H          -1.1950    0.8796   20.5887 H       1  UNL1        0.1563
     24 C          -1.4054    3.5942   20.0360 C.3     1  UNL1        0.1119
     25 C          -5.2959    3.6794   20.8148 C.ar    1  UNL1        0.1415
     26 C          -4.0023    3.6696   20.0555 C.ar    1  UNL1        0.0333
     27 C          -2.6991    3.6040   20.7952 C.ar    1  UNL1       -0.0071
     28 C          -2.6894    3.5483   22.2941 C.ar    1  UNL1        0.0333
     29 C          -3.9830    3.5581   23.0533 C.ar    1  UNL1        0.1415
     30 C          -5.2863    3.6237   22.3137 C.ar    1  UNL1        0.0737
     31 C          -6.6218    3.6067   18.5816 C.3     1  UNL1        0.2525
     32 O          -6.5992    3.7450   20.0751 O.3     1  UNL1       -0.4713
     33 O          -3.9734    3.5024   24.5523 O.3     1  UNL1       -0.4713
     34 C          -5.1605    3.9901   25.3286 C.3     1  UNL1        0.2525
@<TRIPOS>BOND
     1    31    32    1
     2    32    25    1
     3    25    26   ar
     4    26    27   ar
     5    27    24    1
     6    24    20    1
     7    20    21    2
     8    20    22   am
     9    22     1    1
    10     1     2   ar
    11     2     3   ar
    12     3     7    1
    13     7     8   ar
    14     8     9   ar
    15     9    10    1
    16     9    11   ar
    17    11    12   ar
    18    12    13    1
    19     3     4   ar
    20     4     5   ar
    21     5    14    1
    22    14    15   ar
    23    15    16   ar
    24    16    17   ar
    25    17    18    1
    26    17    19   ar
    27     5     6   ar
    28    27    28   ar
    29    28    29   ar
    30    29    33    1
    31    33    34    1
    32    29    30   ar
    33    30    25   ar
    34     6     1   ar
    35    12     7   ar
    36    19    14   ar
    37    22    23    1
@<TRIPOS>MOLECULE
*****
 34 37 0 0 0
SMALL
GASTEIGER

@<TRIPOS>ATOM
      1 C           1.0477    2.3854   22.7646 C.ar    1  UNL1        0.1390
      2 C          -0.1906    2.9558   22.1393 C.ar    1  UNL1        0.0733
      3 C          -0.6141    2.5092   20.7714 C.ar    1  UNL1        0.1679
      4 N           0.2008    1.4921   20.0288 N.ar    1  UNL1       -0.2047
      5 C           1.4393    0.9217   20.6541 C.ar    1  UNL1        0.2001
      6 N           1.8627    1.3683   22.0220 N.ar    1  UNL1       -0.2088
      7 N          -1.8525    3.0796   20.1461 N.ar    1  UNL1       -0.2164
      8 N          -3.2599    2.8559   20.6144 N.ar    1  UNL1       -0.1684
      9 C          -4.1782    3.6119   19.7005 C.ar    1  UNL1        0.0805
     10 C          -5.6737    3.6673   19.8019 C.3     1  UNL1        0.0540
     11 C          -3.3383    4.3029   18.6674 C.ar    1  UNL1        0.0312
     12 C          -1.9010    3.9739   18.9428 C.ar    1  UNL1        0.0637
     13 C          -0.7195    4.4547   18.1536 C.3     1  UNL1        0.0522
     14 C           2.2542   -0.0954   19.9115 C.ar    1  UNL1        0.1805
     15 C           2.9575    0.1221   18.6046 C.ar    1  UNL1        0.0434
     16 C           3.6468   -1.1565   18.2307 C.ar    1  UNL1        0.0362
     17 C           3.3695   -2.1644   19.3066 C.ar    1  UNL1        0.1234
     18 C           3.8658   -3.5795   19.3381 C.3     1  UNL1        0.0725
     19 O           2.5088   -1.5085   20.3453 O.2     1  UNL1       -0.4546
     20 C           0.6619    2.4407   25.3333 C.2     1  UNL1        0.2316
     21 O          -0.5710    1.6027   25.1661 O.2     1  UNL1       -0.2744
     22 N           1.4712    2.8320   24.1325 N.am    1  UNL1       -0.2689
     23 H           2.2804    3.3820   24.2423 H       1  UNL1        0.1563
     24 C           1.0853    2.8873   26.7012 C.3     1  UNL1        0.1119
     25 C           2.5307   -0.3937   28.4031 C.ar    1  UNL1        0.1415
     26 C           2.1764    0.6229   27.3585 C.ar    1  UNL1        0.0333
     27 C           1.4396    1.8708   27.7458 C.ar    1  UNL1       -0.0071
     28 C           1.0572    2.1021   29.1776 C.ar    1  UNL1        0.0333
     29 C           1.4115    1.0856   30.2222 C.ar    1  UNL1        0.1415
     30 C           2.1482   -0.1623   29.8349 C.ar    1  UNL1        0.0737
     31 C           4.5317   -1.5478   27.2141 C.3     1  UNL1        0.2525
     32 O           3.2674   -1.6415   28.0158 O.3     1  UNL1       -0.4713
     33 O           1.0290    1.3170   31.6541 O.3     1  UNL1       -0.4713
     34 C           1.9565    2.0628   32.5670 C.3     1  UNL1        0.2525
@<TRIPOS>BOND
     1    31    32    1
     2    32    25    1
     3    25    26   ar
     4    26    27   ar
     5    27    24    1
     6    24    20    1
     7    20    21    2
     8    20    22   am
     9    22     1    1
    10     1     2   ar
    11     2     3   ar
    12     3     7    1
    13     7     8   ar
    14     8     9   ar
    15     9    10    1
    16     9    11   ar
    17    11    12   ar
    18    12    13    1
    19     3     4   ar
    20     4     5   ar
    21     5    14    1
    22    14    15   ar
    23    15    16   ar
    24    16    17   ar
    25    17    18    1
    26    17    19   ar
    27     5     6   ar
    28    27    28   ar
    29    28    29   ar
    30    29    33    1
    31    33    34    1
    32    29    30   ar
    33    30    25   ar
    34     6     1   ar
    35    12     7   ar
    36    19    14   ar
    37    22    23    1
@<TRIPOS>MOLECULE
*****
 34 37 0 0 0
SMALL
GASTEIGER

@<TRIPOS>ATOM
      1 C           5.7324   -1.9934   26.0724 C.ar    1  UNL1        0.1390
      2 C           6.4726   -3.2878   26.2352 C.ar    1  UNL1        0.0733
      3 C           6.4945   -4.2852   25.1151 C.ar    1  UNL1        0.1679
      4 N           5.7762   -3.9882   23.8322 N.ar    1  UNL1       -0.2047
      5 C           5.0360   -2.6937   23.6694 C.ar    1  UNL1        0.2001
      6 N           5.0141   -1.6963   24.7895 N.ar    1  UNL1       -0.2088
      7 N           7.2347   -5.5797   25.2779 N.ar    1  UNL1       -0.2164
      8 N           7.1719   -6.4873   26.4705 N.ar    1  UNL1       -0.1684
      9 C           8.0660   -7.6624   26.2064 C.ar    1  UNL1        0.0805
     10 C           8.3031   -8.8162   27.1351 C.3     1  UNL1        0.0540
     11 C           8.6814   -7.4810   24.8505 C.ar    1  UNL1        0.0312
     12 C           8.1676   -6.1939   24.2766 C.ar    1  UNL1        0.0637
     13 C           8.5241   -5.6213   22.9369 C.3     1  UNL1        0.0522
     14 C           4.3177   -2.3967   22.3865 C.ar    1  UNL1        0.1805
     15 C           4.5790   -3.0448   21.0593 C.ar    1  UNL1        0.0434
     16 C           3.6348   -2.4481   20.0581 C.ar    1  UNL1        0.0362
     17 C           2.7898   -1.4312   20.7666 C.ar    1  UNL1        0.1234
     18 C           1.7121   -0.5932   20.1452 C.3     1  UNL1        0.0725
     19 O           3.2119   -1.3994   22.2056 O.2     1  UNL1       -0.4546
     20 C           4.4666   -0.8143   28.0108 C.2     1  UNL1        0.2316
     21 O           3.2445   -1.6301   27.7090 O.2     1  UNL1       -0.2744
     22 N           5.7105   -0.9960   27.1926 N.am    1  UNL1       -0.2689
     23 H           6.5126   -0.4606   27.3907 H       1  UNL1        0.1563
     24 C           4.4447    0.1831   29.1310 C.3     1  UNL1        0.1119
     25 C           3.9322    0.0544   33.0643 C.ar    1  UNL1        0.1415
     26 C           3.8668    0.5235   31.6410 C.ar    1  UNL1        0.0333
     27 C           4.5101   -0.2860   30.5543 C.ar    1  UNL1       -0.0071
     28 C           5.2188   -1.5644   30.8908 C.ar    1  UNL1        0.0333
     29 C           5.2842   -2.0334   32.3141 C.ar    1  UNL1        0.1415
     30 C           4.6409   -1.2240   33.4008 C.ar    1  UNL1        0.0737
     31 C           2.7373    2.2250   33.8459 C.3     1  UNL1        0.2525
     32 O           3.2889    0.8639   34.1510 O.3     1  UNL1       -0.4713
     33 O           5.9930   -3.3119   32.6507 O.3     1  UNL1       -0.4713
     34 C           6.7485   -4.0529   31.5876 C.3     1  UNL1        0.2525
@<TRIPOS>BOND
     1    31    32    1
     2    32    25    1
     3    25    26   ar
     4    26    27   ar
     5    27    24    1
     6    24    20    1
     7    20    21    2
     8    20    22   am
     9    22     1    1
    10     1     2   ar
    11     2     3   ar
    12     3     7    1
    13     7     8   ar
    14     8     9   ar
    15     9    10    1
    16     9    11   ar
    17    11    12   ar
    18    12    13    1
    19     3     4   ar
    20     4     5   ar
    21     5    14    1
    22    14    15   ar
    23    15    16   ar
    24    16    17   ar
    25    17    18    1
    26    17    19   ar
    27     5     6   ar
    28    27    28   ar
    29    28    29   ar
    30    29    33    1
    31    33    34    1
    32    29    30   ar
    33    30    25   ar
    34     6     1   ar
    35    12     7   ar
    36    19    14   ar
    37    22    23    1
@<TRIPOS>MOLECULE
*****
 34 37 0 0 0
SMALL
GASTEIGER

@<TRIPOS>ATOM
      1 C           5.1572   -0.3821   31.8966 C.ar    1  UNL1        0.1390
      2 C           6.1600   -1.1579   31.0950 C.ar    1  UNL1        0.0733
      3 C           5.8373   -1.5741   29.6905 C.ar    1  UNL1        0.1679
      4 N           4.5118   -1.2145   29.0876 N.ar    1  UNL1       -0.2047
      5 C           3.5089   -0.4387   29.8892 C.ar    1  UNL1        0.2001
      6 N           3.8316   -0.0225   31.2937 N.ar    1  UNL1       -0.2088
      7 N           6.8402   -2.3498   28.8889 N.ar    1  UNL1       -0.2164
      8 N           7.5700   -1.8566   27.6748 N.ar    1  UNL1       -0.1684
      9 C           8.4702   -2.9569   27.1962 C.ar    1  UNL1        0.0805
     10 C           9.3835   -2.8949   26.0080 C.3     1  UNL1        0.0540
     11 C           8.2967   -4.1302   28.1147 C.ar    1  UNL1        0.0312
     12 C           7.2893   -3.7550   29.1608 C.ar    1  UNL1        0.0637
     13 C           6.8144   -4.6310   30.2819 C.3     1  UNL1        0.0522
     14 C           2.1833   -0.0792   29.2862 C.ar    1  UNL1        0.1805
     15 C           1.9721    0.6763   28.0077 C.ar    1  UNL1        0.0434
     16 C           0.4945    0.8105   27.7872 C.ar    1  UNL1        0.0362
     17 C          -0.2076    0.1379   28.9295 C.ar    1  UNL1        0.1234
     18 C          -1.6926    0.0334   29.1131 C.3     1  UNL1        0.0725
     19 O           0.8362   -0.4119   29.8559 O.2     1  UNL1       -0.4546
     20 C           4.8519   -0.6834   34.4590 C.2     1  UNL1        0.2316
     21 O           3.9010   -1.8171   34.2124 O.2     1  UNL1       -0.2744
     22 N           5.4800    0.0340   33.3011 N.am    1  UNL1       -0.2689
     23 H           6.1040    0.7781   33.4629 H       1  UNL1        0.1563
     24 C           5.1746   -0.2672   35.8635 C.3     1  UNL1        0.1119
     25 C           3.7332    3.3579   36.5923 C.ar    1  UNL1        0.1415
     26 C           4.4968    2.2395   35.9473 C.ar    1  UNL1        0.0333
     27 C           4.4109    0.8512   36.5086 C.ar    1  UNL1       -0.0071
     28 C           3.5614    0.5812   37.7149 C.ar    1  UNL1        0.0333
     29 C           2.7978    1.6995   38.3600 C.ar    1  UNL1        0.1415
     30 C           2.8837    3.0879   37.7986 C.ar    1  UNL1        0.0737
     31 C           2.6020    5.3922   35.4382 C.3     1  UNL1        0.2525
     32 O           3.8191    4.7462   36.0309 O.3     1  UNL1       -0.4713
     33 O           1.9482    1.4296   39.5664 O.3     1  UNL1       -0.4713
     34 C           1.2387    0.1153   39.7052 C.3     1  UNL1        0.2525
@<TRIPOS>BOND
     1    31    32    1
     2    32    25    1
     3    25    26   ar
     4    26    27   ar
     5    27    24    1
     6    24    20    1
     7    20    21    2
     8    20    22   am
     9    22     1    1
    10     1     2   ar
    11     2     3   ar
    12     3     7    1
    13     7     8   ar
    14     8     9   ar
    15     9    10    1
    16     9    11   ar
    17    11    12   ar
    18    12    13    1
    19     3     4   ar
    20     4     5   ar
    21     5    14    1
    22    14    15   ar
    23    15    16   ar
    24    16    17   ar
    25    17    18    1
    26    17    19   ar
    27     5     6   ar
    28    27    28   ar
    29    28    29   ar
    30    29    33    1
    31    33    34    1
    32    29    30   ar
    33    30    25   ar
    34     6     1   ar
    35    12     7   ar
    36    19    14   ar
    37    22    23    1
