@<TRIPOS>MOLECULE
*****
 28 31 0 0 0
SMALL
GASTEIGER

@<TRIPOS>ATOM
      1 C          -9.3375  -18.9702   21.6381 C.3     1  UNL1        0.1139
      2 C          -7.9132  -19.3588   21.3733 C.ar    1  UNL1       -0.0029
      3 C          -6.8625  -19.1126   22.4152 C.ar    1  UNL1       -0.0026
      4 C          -5.4381  -19.5012   22.1504 C.ar    1  UNL1       -0.0003
      5 C          -5.0644  -20.1360   20.8438 C.ar    1  UNL1       -0.0000
      6 C          -6.1150  -20.3821   19.8019 C.ar    1  UNL1       -0.0003
      7 C          -7.5395  -19.9935   20.0666 C.ar    1  UNL1       -0.0026
      8 C         -10.7633  -18.0607   19.6658 C.3     1  UNL1        0.1153
      9 N          -9.9493  -17.8154   20.9016 N.am    1  UNL1       -0.2714
     10 C          -9.7470  -16.4155   21.4008 C.2     1  UNL1        0.2665
     11 O         -10.3587  -15.2609   20.6643 O.2     1  UNL1       -0.2710
     12 C          -8.9329  -16.1703   22.6366 C.3     1  UNL1        0.2456
     13 C          -9.4326  -16.2374   24.0493 C.3     1  UNL1        0.0825
     14 C          -8.2848  -15.9235   24.9625 C.ar    1  UNL1        0.0159
     15 C          -8.1844  -15.8417   26.4569 C.ar    1  UNL1       -0.0011
     16 C          -6.8749  -15.4987   27.1029 C.ar    1  UNL1       -0.0001
     17 C          -5.6657  -15.2375   26.2546 C.ar    1  UNL1        0.0031
     18 C          -5.7661  -15.3193   24.7602 C.ar    1  UNL1        0.0366
     19 C          -7.0756  -15.6623   24.1142 C.ar    1  UNL1        0.1352
     20 O          -7.4762  -15.8148   22.6767 O.3     1  UNL1       -0.4699
     21 C         -10.1502  -19.7362   22.6394 C.3     1  UNL1        0.0968
     22 N         -11.4023  -19.1355   23.2064 N.3     1  UNL1       -0.2689
     23 C         -12.3926  -18.2927   22.4589 C.3     1  UNL1        0.0748
     24 C         -13.4862  -17.9084   23.4109 C.3     1  UNL1        0.0480
     25 C         -13.1717  -18.5137   24.7468 C.3     1  UNL1        0.1278
     26 O         -13.9998  -18.3834   25.9908 O.3     1  UNL1       -0.3830
     27 C         -11.8838  -19.2721   24.6205 C.3     1  UNL1        0.1017
     28 H         -13.5744  -18.8692   26.7147 H       1  UNL1        0.2104
@<TRIPOS>BOND
     1     8     9    1
     2     9    10   am
     3    10    11    2
     4    12    10    1
     5    12    13    1
     6    13    14    1
     7    14    15   ar
     8    15    16   ar
     9    16    17   ar
    10    17    18   ar
    11    18    19   ar
    12    19    20    1
    13     9     1    1
    14     1    21    1
    15    21    22    1
    16    22    23    1
    17    23    24    1
    18    24    25    1
    19    25    26    1
    20    25    27    1
    21     1     2    1
    22     2     3   ar
    23     3     4   ar
    24     4     5   ar
    25     5     6   ar
    26     6     7   ar
    27    20    12    1
    28    27    22    1
    29     7     2   ar
    30    19    14   ar
    31    26    28    1
@<TRIPOS>MOLECULE
*****
 28 31 0 0 0
SMALL
GASTEIGER

@<TRIPOS>ATOM
      1 C          -8.4861  -16.8046   23.4259 C.3     1  UNL1        0.1139
      2 C          -7.7461  -16.2077   24.5860 C.ar    1  UNL1       -0.0029
      3 C          -6.3233  -15.7628   24.4192 C.ar    1  UNL1       -0.0026
      4 C          -5.5832  -15.1658   25.5794 C.ar    1  UNL1       -0.0003
      5 C          -6.2659  -15.0137   26.9063 C.ar    1  UNL1       -0.0000
      6 C          -7.6887  -15.4586   27.0731 C.ar    1  UNL1       -0.0003
      7 C          -8.4288  -16.0556   25.9130 C.ar    1  UNL1       -0.0026
      8 C         -10.4707  -18.2775   24.2273 C.3     1  UNL1        0.1153
      9 N          -9.1325  -18.1515   23.5615 N.am    1  UNL1       -0.2714
     10 C          -8.4406  -19.3722   23.0312 C.2     1  UNL1        0.2665
     11 O          -9.0870  -20.7189   23.1668 O.2     1  UNL1       -0.2710
     12 C          -7.1024  -19.2461   22.3654 C.3     1  UNL1        0.2456
     13 C          -6.8181  -19.4657   20.9091 C.3     1  UNL1        0.0825
     14 C          -5.3535  -19.2336   20.6826 C.ar    1  UNL1        0.0159
     15 C          -4.5050  -19.3059   19.4478 C.ar    1  UNL1       -0.0011
     16 C          -3.0358  -19.0153   19.5293 C.ar    1  UNL1       -0.0001
     17 C          -2.4150  -18.6523   20.8457 C.ar    1  UNL1        0.0031
     18 C          -3.2634  -18.5800   22.0805 C.ar    1  UNL1        0.0366
     19 C          -4.7327  -18.8707   21.9990 C.ar    1  UNL1        0.1352
     20 O          -5.8136  -18.8784   23.0390 O.3     1  UNL1       -0.4699
     21 C          -8.5799  -16.0548   22.1301 C.3     1  UNL1        0.0968
     22 N          -9.7076  -16.3347   21.1815 N.3     1  UNL1       -0.2689
     23 C         -10.1090  -17.6836   20.6626 C.3     1  UNL1        0.0748
     24 C         -11.2814  -17.4974   19.7456 C.3     1  UNL1        0.0480
     25 C         -11.6045  -16.0335   19.6979 C.3     1  UNL1        0.1278
     26 O         -12.7069  -15.3993   18.9023 O.3     1  UNL1       -0.3830
     27 C         -10.6319  -15.3148   20.5853 C.3     1  UNL1        0.1017
     28 H         -12.6998  -14.4403   19.0473 H       1  UNL1        0.2104
@<TRIPOS>BOND
     1     8     9    1
     2     9    10   am
     3    10    11    2
     4    12    10    1
     5    12    13    1
     6    13    14    1
     7    14    15   ar
     8    15    16   ar
     9    16    17   ar
    10    17    18   ar
    11    18    19   ar
    12    19    20    1
    13     9     1    1
    14     1    21    1
    15    21    22    1
    16    22    23    1
    17    23    24    1
    18    24    25    1
    19    25    26    1
    20    25    27    1
    21     1     2    1
    22     2     3   ar
    23     3     4   ar
    24     4     5   ar
    25     5     6   ar
    26     6     7   ar
    27    20    12    1
    28    27    22    1
    29     7     2   ar
    30    19    14   ar
    31    26    28    1
@<TRIPOS>MOLECULE
*****
 28 31 0 0 0
SMALL
GASTEIGER

@<TRIPOS>ATOM
      1 C          -7.8926  -17.7640   22.5718 C.3     1  UNL1        0.1139
      2 C          -7.2827  -16.8750   23.6147 C.ar    1  UNL1       -0.0029
      3 C          -8.1132  -16.3906   24.7661 C.ar    1  UNL1       -0.0026
      4 C          -7.5033  -15.5016   25.8090 C.ar    1  UNL1       -0.0003
      5 C          -6.0630  -15.0969   25.7006 C.ar    1  UNL1       -0.0000
      6 C          -5.2326  -15.5812   24.5492 C.ar    1  UNL1       -0.0003
      7 C          -5.8424  -16.4703   23.5062 C.ar    1  UNL1       -0.0026
      8 C          -9.2230  -19.8299   23.4155 C.3     1  UNL1        0.1153
      9 N          -7.9842  -19.2426   22.8070 N.am    1  UNL1       -0.2714
     10 C          -6.8369  -20.1339   22.4338 C.2     1  UNL1        0.2665
     11 O          -6.9285  -21.6125   22.6691 O.2     1  UNL1       -0.2710
     12 C          -5.5980  -19.5466   21.8253 C.3     1  UNL1        0.2456
     13 C          -4.2824  -19.3513   22.5188 C.3     1  UNL1        0.0825
     14 C          -3.3285  -18.7355   21.5386 C.ar    1  UNL1        0.0159
     15 C          -1.8926  -18.3195   21.6614 C.ar    1  UNL1       -0.0011
     16 C          -1.1828  -17.7182   20.4847 C.ar    1  UNL1       -0.0001
     17 C          -1.9089  -17.5329   19.1853 C.ar    1  UNL1        0.0031
     18 C          -3.3448  -17.9488   19.0625 C.ar    1  UNL1        0.0366
     19 C          -4.0546  -18.5501   20.2392 C.ar    1  UNL1        0.1352
     20 O          -5.4572  -19.0514   20.4164 O.3     1  UNL1       -0.4699
     21 C          -8.4109  -17.1744   21.2936 C.3     1  UNL1        0.0968
     22 N          -9.8496  -16.7636   21.1863 N.3     1  UNL1       -0.2689
     23 C         -10.8387  -16.7141   22.3129 C.3     1  UNL1        0.0748
     24 C         -12.1521  -16.2501   21.7565 C.3     1  UNL1        0.0480
     25 C         -11.9747  -16.0128   20.2861 C.3     1  UNL1        0.1278
     26 O         -13.0344  -15.5410   19.3349 O.3     1  UNL1       -0.3830
     27 C         -10.5517  -16.3302   19.9337 C.3     1  UNL1        0.1017
     28 H         -12.6597  -15.4695   18.4431 H       1  UNL1        0.2104
@<TRIPOS>BOND
     1     8     9    1
     2     9    10   am
     3    10    11    2
     4    12    10    1
     5    12    13    1
     6    13    14    1
     7    14    15   ar
     8    15    16   ar
     9    16    17   ar
    10    17    18   ar
    11    18    19   ar
    12    19    20    1
    13     9     1    1
    14     1    21    1
    15    21    22    1
    16    22    23    1
    17    23    24    1
    18    24    25    1
    19    25    26    1
    20    25    27    1
    21     1     2    1
    22     2     3   ar
    23     3     4   ar
    24     4     5   ar
    25     5     6   ar
    26     6     7   ar
    27    20    12    1
    28    27    22    1
    29     7     2   ar
    30    19    14   ar
    31    26    28    1
@<TRIPOS>MOLECULE
*****
 28 31 0 0 0
SMALL
GASTEIGER

@<TRIPOS>ATOM
      1 C          -6.8878  -19.8216   21.1766 C.3     1  UNL1        0.1139
      2 C          -5.4979  -19.2625   21.2506 C.ar    1  UNL1       -0.0029
      3 C          -4.8308  -19.0849   22.5824 C.ar    1  UNL1       -0.0026
      4 C          -3.4409  -18.5258   22.6564 C.ar    1  UNL1       -0.0003
      5 C          -2.7180  -18.1442   21.3987 C.ar    1  UNL1       -0.0000
      6 C          -3.3850  -18.3217   20.0670 C.ar    1  UNL1       -0.0003
      7 C          -4.7750  -18.8809   19.9929 C.ar    1  UNL1       -0.0026
      8 C          -6.4415  -21.3918   19.1554 C.3     1  UNL1        0.1153
      9 N          -7.3626  -20.4870   19.9188 N.am    1  UNL1       -0.2714
     10 C          -8.7584  -20.2475   19.4246 C.2     1  UNL1        0.2665
     11 O          -9.2331  -20.9129   18.1669 O.2     1  UNL1       -0.2710
     12 C          -9.6795  -19.3427   20.1880 C.3     1  UNL1        0.2456
     13 C         -10.7420  -19.7773   21.1535 C.3     1  UNL1        0.0825
     14 C         -11.4190  -18.5476   21.6822 C.ar    1  UNL1        0.0159
     15 C         -12.5388  -18.3614   22.6627 C.ar    1  UNL1       -0.0011
     16 C         -13.0144  -16.9805   23.0045 C.ar    1  UNL1       -0.0001
     17 C         -12.3702  -15.7859   22.3659 C.ar    1  UNL1        0.0031
     18 C         -11.2505  -15.9721   21.3854 C.ar    1  UNL1        0.0366
     19 C         -10.7749  -17.3530   21.0436 C.ar    1  UNL1        0.1352
     20 O          -9.6998  -17.8444   20.1201 O.3     1  UNL1       -0.4699
     21 C          -7.8030  -19.7153   22.3603 C.3     1  UNL1        0.0968
     22 N          -8.0895  -18.3746   22.9689 N.3     1  UNL1       -0.2689
     23 C          -8.9993  -18.1106   24.1318 C.3     1  UNL1        0.0748
     24 C          -8.9886  -16.6354   24.4031 C.3     1  UNL1        0.0480
     25 C          -8.0722  -15.9877   23.4078 C.3     1  UNL1        0.1278
     26 O          -7.7653  -14.5223   23.3150 O.3     1  UNL1       -0.3830
     27 C          -7.5165  -17.0626   22.5213 C.3     1  UNL1        0.1017
     28 H          -7.1445  -14.3675   22.5860 H       1  UNL1        0.2104
@<TRIPOS>BOND
     1     8     9    1
     2     9    10   am
     3    10    11    2
     4    12    10    1
     5    12    13    1
     6    13    14    1
     7    14    15   ar
     8    15    16   ar
     9    16    17   ar
    10    17    18   ar
    11    18    19   ar
    12    19    20    1
    13     9     1    1
    14     1    21    1
    15    21    22    1
    16    22    23    1
    17    23    24    1
    18    24    25    1
    19    25    26    1
    20    25    27    1
    21     1     2    1
    22     2     3   ar
    23     3     4   ar
    24     4     5   ar
    25     5     6   ar
    26     6     7   ar
    27    20    12    1
    28    27    22    1
    29     7     2   ar
    30    19    14   ar
    31    26    28    1
@<TRIPOS>MOLECULE
*****
 28 31 0 0 0
SMALL
GASTEIGER

@<TRIPOS>ATOM
      1 C         -12.7875   -4.5576   17.6117 C.3     1  UNL1        0.1139
      2 C         -11.8451   -5.7169   17.7456 C.ar    1  UNL1       -0.0029
      3 C         -10.8195   -5.7273   18.8402 C.ar    1  UNL1       -0.0026
      4 C          -9.8772   -6.8866   18.9740 C.ar    1  UNL1       -0.0003
      5 C          -9.9603   -8.0355   18.0133 C.ar    1  UNL1       -0.0000
      6 C         -10.9858   -8.0252   16.9187 C.ar    1  UNL1       -0.0003
      7 C         -11.9282   -6.8658   16.7848 C.ar    1  UNL1       -0.0026
      8 C         -12.0318   -2.3847   18.8191 C.3     1  UNL1        0.1153
      9 N         -12.9366   -3.5784   18.7382 N.am    1  UNL1       -0.2714
     10 C         -13.9906   -3.7928   19.7838 C.2     1  UNL1        0.2665
     11 O         -14.1397   -2.8137   20.9102 O.2     1  UNL1       -0.2710
     12 C         -14.8954   -4.9865   19.7029 C.3     1  UNL1        0.2456
     13 C         -16.3951   -4.9584   19.7134 C.3     1  UNL1        0.0825
     14 C         -16.8859   -6.3724   19.6143 C.ar    1  UNL1        0.0159
     15 C         -18.2677   -6.9551   19.5801 C.ar    1  UNL1       -0.0011
     16 C         -18.4530   -8.4398   19.4741 C.ar    1  UNL1       -0.0001
     17 C         -17.2567   -9.3417   19.4023 C.ar    1  UNL1        0.0031
     18 C         -15.8750   -8.7590   19.4364 C.ar    1  UNL1        0.0366
     19 C         -15.6896   -7.2743   19.5424 C.ar    1  UNL1        0.1352
     20 O         -14.4594   -6.4178   19.5972 O.3     1  UNL1       -0.4699
     21 C         -13.5807   -4.3775   16.3514 C.3     1  UNL1        0.0968
     22 N         -14.9617   -4.9532   16.2457 N.3     1  UNL1       -0.2689
     23 C         -16.2411   -4.1719   16.1950 C.3     1  UNL1        0.0748
     24 C         -17.3760   -5.1471   16.0901 C.3     1  UNL1        0.0480
     25 C         -16.7979   -6.5311   16.0759 C.3     1  UNL1        0.1278
     26 O         -17.5754   -7.8105   15.9820 O.3     1  UNL1       -0.3830
     27 C         -15.3058   -6.4114   16.1721 C.3     1  UNL1        0.1017
     28 H         -16.9630   -8.5626   15.9927 H       1  UNL1        0.2104
@<TRIPOS>BOND
     1     8     9    1
     2     9    10   am
     3    10    11    2
     4    12    10    1
     5    12    13    1
     6    13    14    1
     7    14    15   ar
     8    15    16   ar
     9    16    17   ar
    10    17    18   ar
    11    18    19   ar
    12    19    20    1
    13     9     1    1
    14     1    21    1
    15    21    22    1
    16    22    23    1
    17    23    24    1
    18    24    25    1
    19    25    26    1
    20    25    27    1
    21     1     2    1
    22     2     3   ar
    23     3     4   ar
    24     4     5   ar
    25     5     6   ar
    26     6     7   ar
    27    20    12    1
    28    27    22    1
    29     7     2   ar
    30    19    14   ar
    31    26    28    1
@<TRIPOS>MOLECULE
*****
 28 31 0 0 0
SMALL
GASTEIGER

@<TRIPOS>ATOM
      1 C          -6.4236  -18.4819   22.6299 C.3     1  UNL1        0.1139
      2 C          -5.6251  -19.1454   21.5472 C.ar    1  UNL1       -0.0029
      3 C          -4.6069  -18.3583   20.7767 C.ar    1  UNL1       -0.0026
      4 C          -3.8084  -19.0217   19.6941 C.ar    1  UNL1       -0.0003
      5 C          -4.0280  -20.4724   19.3819 C.ar    1  UNL1       -0.0000
      6 C          -5.0461  -21.2595   20.1525 C.ar    1  UNL1       -0.0003
      7 C          -5.8447  -20.5960   21.2351 C.ar    1  UNL1       -0.0026
      8 C          -4.5272  -17.1295   23.7808 C.3     1  UNL1        0.1153
      9 N          -5.9295  -17.2108   23.2545 N.am    1  UNL1       -0.2714
     10 C          -6.8376  -16.0210   23.3528 C.2     1  UNL1        0.2665
     11 O          -6.3434  -14.7499   23.9774 O.2     1  UNL1       -0.2710
     12 C          -8.2398  -16.1023   22.8265 C.3     1  UNL1        0.2456
     13 C          -9.4740  -16.3550   23.6407 C.3     1  UNL1        0.0825
     14 C         -10.6511  -16.3540   22.7110 C.ar    1  UNL1        0.0159
     15 C         -12.1188  -16.5510   22.9497 C.ar    1  UNL1       -0.0011
     16 C         -13.0798  -16.4947   21.7994 C.ar    1  UNL1       -0.0001
     17 C         -12.5732  -16.2414   20.4105 C.ar    1  UNL1        0.0031
     18 C         -11.1055  -16.0443   20.1718 C.ar    1  UNL1        0.0366
     19 C         -10.1444  -16.1006   21.3221 C.ar    1  UNL1        0.1352
     20 O          -8.6542  -15.9450   21.3934 O.3     1  UNL1       -0.4699
     21 C          -7.7163  -19.0895   23.0879 C.3     1  UNL1        0.0968
     22 N          -8.8118  -19.3560   22.0987 N.3     1  UNL1       -0.2689
     23 C         -10.2089  -19.7925   22.4266 C.3     1  UNL1        0.0748
     24 C         -10.9632  -19.9391   21.1384 C.3     1  UNL1        0.0480
     25 C         -10.0323  -19.5933   20.0143 C.3     1  UNL1        0.1278
     26 O         -10.3714  -19.6056   18.5531 O.3     1  UNL1       -0.3830
     27 C          -8.7027  -19.2329   20.6077 C.3     1  UNL1        0.1017
     28 H          -9.5927  -19.3421   18.0382 H       1  UNL1        0.2104
@<TRIPOS>BOND
     1     8     9    1
     2     9    10   am
     3    10    11    2
     4    12    10    1
     5    12    13    1
     6    13    14    1
     7    14    15   ar
     8    15    16   ar
     9    16    17   ar
    10    17    18   ar
    11    18    19   ar
    12    19    20    1
    13     9     1    1
    14     1    21    1
    15    21    22    1
    16    22    23    1
    17    23    24    1
    18    24    25    1
    19    25    26    1
    20    25    27    1
    21     1     2    1
    22     2     3   ar
    23     3     4   ar
    24     4     5   ar
    25     5     6   ar
    26     6     7   ar
    27    20    12    1
    28    27    22    1
    29     7     2   ar
    30    19    14   ar
    31    26    28    1
@<TRIPOS>MOLECULE
*****
 28 31 0 0 0
SMALL
GASTEIGER

@<TRIPOS>ATOM
      1 C         -12.5127   -4.4038   17.8434 C.3     1  UNL1        0.1139
      2 C         -11.6249   -5.6096   17.9314 C.ar    1  UNL1       -0.0029
      3 C         -11.8759   -6.7922   17.0432 C.ar    1  UNL1       -0.0026
      4 C         -10.9881   -7.9980   17.1312 C.ar    1  UNL1       -0.0003
      5 C          -9.8494   -8.0214   18.1072 C.ar    1  UNL1       -0.0000
      6 C          -9.5984   -6.8390   18.9954 C.ar    1  UNL1       -0.0003
      7 C         -10.4862   -5.6330   18.9074 C.ar    1  UNL1       -0.0026
      8 C         -11.7943   -2.3641   19.2835 C.3     1  UNL1        0.1153
      9 N         -12.7098   -3.5283   19.0454 N.am    1  UNL1       -0.2714
     10 C         -13.8223   -3.8169   20.0092 C.2     1  UNL1        0.2665
     11 O         -14.0194   -2.9414   21.2111 O.2     1  UNL1       -0.2710
     12 C         -14.7378   -4.9810   19.7711 C.3     1  UNL1        0.2456
     13 C         -16.2292   -4.9144   19.6251 C.3     1  UNL1        0.0825
     14 C         -16.7357   -6.3084   19.4009 C.ar    1  UNL1        0.0159
     15 C         -18.1177   -6.8525   19.1910 C.ar    1  UNL1       -0.0011
     16 C         -18.3213   -8.3247   18.9885 C.ar    1  UNL1       -0.0001
     17 C         -17.1430   -9.2529   18.9959 C.ar    1  UNL1        0.0031
     18 C         -15.7610   -8.7088   19.2059 C.ar    1  UNL1        0.0366
     19 C         -15.5574   -7.2366   19.4084 C.ar    1  UNL1        0.1352
     20 O         -14.3226   -6.4162   19.6371 O.3     1  UNL1       -0.4699
     21 C         -13.2034   -4.0734   16.5535 C.3     1  UNL1        0.0968
     22 N         -13.9872   -2.8008   16.4270 N.3     1  UNL1       -0.2689
     23 C         -13.4478   -1.4737   15.9823 C.3     1  UNL1        0.0748
     24 C         -14.5752   -0.4845   16.0034 C.3     1  UNL1        0.0480
     25 C         -15.8113   -1.2003   16.4612 C.3     1  UNL1        0.1278
     26 O         -17.1721   -0.5914   16.6279 O.3     1  UNL1       -0.3830
     27 C         -15.4479   -2.6318   16.7230 C.3     1  UNL1        0.1017
     28 H         -17.7942   -1.2693   16.9350 H       1  UNL1        0.2104
@<TRIPOS>BOND
     1     8     9    1
     2     9    10   am
     3    10    11    2
     4    12    10    1
     5    12    13    1
     6    13    14    1
     7    14    15   ar
     8    15    16   ar
     9    16    17   ar
    10    17    18   ar
    11    18    19   ar
    12    19    20    1
    13     9     1    1
    14     1    21    1
    15    21    22    1
    16    22    23    1
    17    23    24    1
    18    24    25    1
    19    25    26    1
    20    25    27    1
    21     1     2    1
    22     2     3   ar
    23     3     4   ar
    24     4     5   ar
    25     5     6   ar
    26     6     7   ar
    27    20    12    1
    28    27    22    1
    29     7     2   ar
    30    19    14   ar
    31    26    28    1
