@<TRIPOS>MOLECULE
*****
 28 31 0 0 0
SMALL
GASTEIGER

@<TRIPOS>ATOM
      1 C          -8.1850  -17.5624   21.9408 C.3     1  UNL1        0.1549
      2 C          -9.2865  -18.1962   22.7376 C.ar    1  UNL1        0.0028
      3 C         -10.6334  -17.5398   22.8095 C.ar    1  UNL1       -0.0023
      4 C         -11.7350  -18.1736   23.6063 C.ar    1  UNL1       -0.0003
      5 C         -11.4896  -19.4637   24.3311 C.ar    1  UNL1       -0.0000
      6 C         -10.1427  -20.1200   24.2592 C.ar    1  UNL1       -0.0003
      7 C          -9.0412  -19.4863   23.4624 C.ar    1  UNL1       -0.0023
      8 N          -7.4576  -18.3605   20.8996 N.pl3   1  UNL1       -0.3234
      9 H          -7.9219  -18.6337   20.0756 H       1  UNL1        0.1475
     10 C          -3.6324  -19.1279   20.1724 C.ar    1  UNL1        0.1590
     11 C          -3.1538  -19.5061   21.5427 C.ar    1  UNL1        0.1357
     12 N          -4.1097  -19.5025   22.6986 N.ar    1  UNL1       -0.2379
     13 C          -5.5443  -19.1206   22.4842 C.ar    1  UNL1        0.1133
     14 C          -6.0230  -18.7424   21.1139 C.ar    1  UNL1        0.0676
     15 C          -5.0671  -18.7460   19.9580 C.ar    1  UNL1        0.0544
     16 C          -1.8206  -17.9295   18.7473 C.3     1  UNL1        0.2525
     17 O          -2.6765  -19.1315   19.0165 O.3     1  UNL1       -0.4698
     18 C          -7.8107  -16.1305   22.1852 C.2     1  UNL1        0.1964
     19 O          -8.2864  -15.0606   21.2478 O.2     1  UNL1       -0.2892
     20 C          -6.9608  -15.7686   23.3670 C.2     1  UNL1        0.0569
     21 C          -5.5562  -15.2448   23.3155 C.2     1  UNL1        0.1014
     22 N          -5.0936  -15.0196   24.7245 N.2     1  UNL1       -0.2477
     23 C          -6.2123  -15.4042   25.6468 C.2     1  UNL1        0.0635
     24 C          -6.3292  -15.3927   27.1422 C.3     1  UNL1        0.0717
     25 C          -7.6001  -15.8441   27.7985 C.2     1  UNL1       -0.0198
     26 C          -8.7542  -16.3071   26.9595 C.2     1  UNL1       -0.0041
     27 C          -8.6372  -16.3186   25.4642 C.2     1  UNL1        0.0010
     28 C          -7.3663  -15.8672   24.8078 C.2     1  UNL1        0.0182
@<TRIPOS>BOND
     1    16    17    1
     2    17    10    1
     3    10    11   ar
     4    11    12   ar
     5    12    13   ar
     6    13    14   ar
     7    14     8    1
     8     8     1    1
     9     1    18    1
    10    18    19    2
    11    18    20    1
    12    20    21    2
    13    21    22    1
    14    22    23    2
    15    23    24    1
    16    24    25    1
    17    25    26    2
    18    26    27    1
    19    27    28    2
    20     1     2    1
    21     2     3   ar
    22     3     4   ar
    23     4     5   ar
    24     5     6   ar
    25     6     7   ar
    26    14    15   ar
    27    15    10   ar
    28    28    20    1
    29     7     2   ar
    30    28    23    1
    31     8     9    1
@<TRIPOS>MOLECULE
*****
 28 31 0 0 0
SMALL
GASTEIGER

@<TRIPOS>ATOM
      1 C          -7.8155  -16.8967   23.1563 C.3     1  UNL1        0.1549
      2 C          -7.4004  -16.2986   24.4678 C.ar    1  UNL1        0.0028
      3 C          -6.0102  -15.7628   24.6412 C.ar    1  UNL1       -0.0023
      4 C          -5.5950  -15.1647   25.9526 C.ar    1  UNL1       -0.0003
      5 C          -6.5702  -15.1025   27.0906 C.ar    1  UNL1       -0.0000
      6 C          -7.9604  -15.6383   26.9173 C.ar    1  UNL1       -0.0003
      7 C          -8.3756  -16.2364   25.6058 C.ar    1  UNL1       -0.0023
      8 N          -7.5451  -18.3447   22.8732 N.pl3   1  UNL1       -0.3234
      9 H          -8.1816  -19.0325   23.1750 H       1  UNL1        0.1475
     10 C          -3.7407  -18.5487   21.7622 C.ar    1  UNL1        0.1590
     11 C          -3.8249  -19.5454   20.6444 C.ar    1  UNL1        0.1357
     12 N          -5.1492  -20.1418   20.2695 N.ar    1  UNL1       -0.2379
     13 C          -6.3893  -19.7416   21.0124 C.ar    1  UNL1        0.1133
     14 C          -6.3050  -18.7449   22.1303 C.ar    1  UNL1        0.0676
     15 C          -4.9808  -18.1485   22.5052 C.ar    1  UNL1        0.0544
     16 C          -2.1721  -16.4854   21.9412 C.3     1  UNL1        0.2525
     17 O          -2.4164  -17.9523   22.1371 O.3     1  UNL1       -0.4698
     18 C          -8.5011  -16.0467   22.1278 C.2     1  UNL1        0.1964
     19 O          -7.7318  -14.9862   21.3977 O.2     1  UNL1       -0.2892
     20 C          -9.9560  -16.2574   21.8296 C.2     1  UNL1        0.0569
     21 C         -10.6998  -15.7193   20.6433 C.2     1  UNL1        0.1014
     22 N         -12.1260  -16.1726   20.7459 N.2     1  UNL1       -0.2477
     23 C         -12.2636  -16.9908   21.9955 C.2     1  UNL1        0.0635
     24 C         -13.4369  -17.6949   22.6100 C.3     1  UNL1        0.0717
     25 C         -13.2690  -18.4515   23.8943 C.2     1  UNL1       -0.0198
     26 C         -11.9278  -18.5039   24.5641 C.2     1  UNL1       -0.0041
     27 C         -10.7546  -17.7998   23.9496 C.2     1  UNL1        0.0010
     28 C         -10.9225  -17.0433   22.6653 C.2     1  UNL1        0.0182
@<TRIPOS>BOND
     1    16    17    1
     2    17    10    1
     3    10    11   ar
     4    11    12   ar
     5    12    13   ar
     6    13    14   ar
     7    14     8    1
     8     8     1    1
     9     1    18    1
    10    18    19    2
    11    18    20    1
    12    20    21    2
    13    21    22    1
    14    22    23    2
    15    23    24    1
    16    24    25    1
    17    25    26    2
    18    26    27    1
    19    27    28    2
    20     1     2    1
    21     2     3   ar
    22     3     4   ar
    23     4     5   ar
    24     5     6   ar
    25     6     7   ar
    26    14    15   ar
    27    15    10   ar
    28    28    20    1
    29     7     2   ar
    30    28    23    1
    31     8     9    1
@<TRIPOS>MOLECULE
*****
 28 31 0 0 0
SMALL
GASTEIGER

@<TRIPOS>ATOM
      1 C          -7.9437  -16.9185   22.9439 C.3     1  UNL1        0.1549
      2 C          -7.5332  -16.3476   24.2688 C.ar    1  UNL1        0.0028
      3 C          -8.4828  -16.3873   25.4293 C.ar    1  UNL1       -0.0023
      4 C          -8.0722  -15.8164   26.7543 C.ar    1  UNL1       -0.0003
      5 C          -6.7120  -15.2059   26.9187 C.ar    1  UNL1       -0.0000
      6 C          -5.7624  -15.1663   25.7582 C.ar    1  UNL1       -0.0003
      7 C          -6.1729  -15.7371   24.4333 C.ar    1  UNL1       -0.0023
      8 N          -8.6510  -16.0549   21.9419 N.pl3   1  UNL1       -0.3234
      9 H          -8.1612  -15.3388   21.4765 H       1  UNL1        0.1475
     10 C         -12.4423  -17.1380   22.3916 C.ar    1  UNL1        0.1590
     11 C         -13.0112  -16.7370   21.0629 C.ar    1  UNL1        0.1357
     12 N         -12.1267  -16.1086   20.0272 N.ar    1  UNL1       -0.2379
     13 C         -10.6733  -15.8813   20.3202 C.ar    1  UNL1        0.1133
     14 C         -10.1044  -16.2823   21.6489 C.ar    1  UNL1        0.0676
     15 C         -10.9889  -16.9107   22.6847 C.ar    1  UNL1        0.0544
     16 C         -12.7253  -18.5869   24.5296 C.3     1  UNL1        0.2525
     17 O         -13.3269  -17.7664   23.4273 O.3     1  UNL1       -0.4698
     18 C          -7.6471  -18.3530   22.6209 C.2     1  UNL1        0.1964
     19 O          -8.4695  -19.4459   23.2365 O.2     1  UNL1       -0.2892
     20 C          -6.5279  -18.6945   21.6823 C.2     1  UNL1        0.0569
     21 C          -6.6781  -19.2120   20.2825 C.2     1  UNL1        0.1014
     22 N          -5.3051  -19.4158   19.7138 N.2     1  UNL1       -0.2477
     23 C          -4.3063  -19.0241   20.7623 C.2     1  UNL1        0.0635
     24 C          -2.8064  -19.0159   20.7663 C.3     1  UNL1        0.0717
     25 C          -2.0622  -18.5618   21.9869 C.2     1  UNL1       -0.0198
     26 C          -2.8180  -18.1161   23.2035 C.2     1  UNL1       -0.0041
     27 C          -4.3179  -18.1243   23.1995 C.2     1  UNL1        0.0010
     28 C          -5.0621  -18.5784   21.9789 C.2     1  UNL1        0.0182
@<TRIPOS>BOND
     1    16    17    1
     2    17    10    1
     3    10    11   ar
     4    11    12   ar
     5    12    13   ar
     6    13    14   ar
     7    14     8    1
     8     8     1    1
     9     1    18    1
    10    18    19    2
    11    18    20    1
    12    20    21    2
    13    21    22    1
    14    22    23    2
    15    23    24    1
    16    24    25    1
    17    25    26    2
    18    26    27    1
    19    27    28    2
    20     1     2    1
    21     2     3   ar
    22     3     4   ar
    23     4     5   ar
    24     5     6   ar
    25     6     7   ar
    26    14    15   ar
    27    15    10   ar
    28    28    20    1
    29     7     2   ar
    30    28    23    1
    31     8     9    1
@<TRIPOS>MOLECULE
*****
 28 31 0 0 0
SMALL
GASTEIGER

@<TRIPOS>ATOM
      1 C          -7.6951  -17.9449   22.2222 C.3     1  UNL1        0.1549
      2 C          -8.9454  -18.4601   21.5730 C.ar    1  UNL1        0.0028
      3 C         -10.2536  -18.3893   22.3033 C.ar    1  UNL1       -0.0023
      4 C         -11.5039  -18.9045   21.6540 C.ar    1  UNL1       -0.0003
      5 C         -11.4457  -19.4904   20.2744 C.ar    1  UNL1       -0.0000
      6 C         -10.1374  -19.5612   19.5441 C.ar    1  UNL1       -0.0003
      7 C          -8.8872  -19.0460   20.1934 C.ar    1  UNL1       -0.0023
      8 N          -6.6548  -18.9066   22.7150 N.pl3   1  UNL1       -0.3234
      9 H          -6.7706  -19.3542   23.5842 H       1  UNL1        0.1475
     10 C          -2.9494  -18.7141   21.3069 C.ar    1  UNL1        0.1590
     11 C          -3.0052  -19.7465   20.2202 C.ar    1  UNL1        0.1357
     12 N          -4.2775  -20.4990   19.9650 N.ar    1  UNL1       -0.2379
     13 C          -5.4940  -20.2190   20.7966 C.ar    1  UNL1        0.1133
     14 C          -5.4383  -19.1866   21.8834 C.ar    1  UNL1        0.0676
     15 C          -4.1660  -18.4341   22.1385 C.ar    1  UNL1        0.0544
     16 C          -1.5037  -16.5749   21.0173 C.3     1  UNL1        0.2525
     17 O          -1.6771  -17.9617   21.5621 O.3     1  UNL1       -0.4698
     18 C          -7.4852  -16.4678   22.3788 C.2     1  UNL1        0.1964
     19 O          -7.9711  -15.5248   21.3184 O.2     1  UNL1       -0.2892
     20 C          -6.7894  -15.9340   23.5957 C.2     1  UNL1        0.0569
     21 C          -5.4583  -15.2429   23.6182 C.2     1  UNL1        0.1014
     22 N          -5.1488  -14.8794   25.0401 N.2     1  UNL1       -0.2477
     23 C          -6.2886  -15.3458   25.8965 C.2     1  UNL1        0.0635
     24 C          -6.5342  -15.2612   27.3738 C.3     1  UNL1        0.0717
     25 C          -7.7937  -15.8284   27.9584 C.2     1  UNL1       -0.0198
     26 C          -8.8077  -16.4802   27.0656 C.2     1  UNL1       -0.0041
     27 C          -8.5621  -16.5648   25.5883 C.2     1  UNL1        0.0010
     28 C          -7.3025  -15.9976   25.0037 C.2     1  UNL1        0.0182
@<TRIPOS>BOND
     1    16    17    1
     2    17    10    1
     3    10    11   ar
     4    11    12   ar
     5    12    13   ar
     6    13    14   ar
     7    14     8    1
     8     8     1    1
     9     1    18    1
    10    18    19    2
    11    18    20    1
    12    20    21    2
    13    21    22    1
    14    22    23    2
    15    23    24    1
    16    24    25    1
    17    25    26    2
    18    26    27    1
    19    27    28    2
    20     1     2    1
    21     2     3   ar
    22     3     4   ar
    23     4     5   ar
    24     5     6   ar
    25     6     7   ar
    26    14    15   ar
    27    15    10   ar
    28    28    20    1
    29     7     2   ar
    30    28    23    1
    31     8     9    1
@<TRIPOS>MOLECULE
*****
 28 31 0 0 0
SMALL
GASTEIGER

@<TRIPOS>ATOM
      1 C          -7.5812  -18.5041   21.7771 C.3     1  UNL1        0.1549
      2 C          -8.4530  -19.0391   20.6799 C.ar    1  UNL1        0.0028
      3 C          -7.8549  -19.8728   19.5858 C.ar    1  UNL1       -0.0023
      4 C          -8.7267  -20.4077   18.4886 C.ar    1  UNL1       -0.0003
      5 C         -10.1966  -20.1090   18.4857 C.ar    1  UNL1       -0.0000
      6 C         -10.7947  -19.2753   19.5798 C.ar    1  UNL1       -0.0003
      7 C          -9.9229  -18.7403   20.6770 C.ar    1  UNL1       -0.0023
      8 N          -6.4061  -19.3027   22.2580 N.pl3   1  UNL1       -0.3234
      9 H          -6.5500  -20.1507   22.7371 H       1  UNL1        0.1475
     10 C          -2.9586  -18.5649   20.4359 C.ar    1  UNL1        0.1590
     11 C          -2.2226  -17.8226   21.5117 C.ar    1  UNL1        0.1357
     12 N          -2.8811  -17.5737   22.8363 N.ar    1  UNL1       -0.2379
     13 C          -4.2756  -18.0670   23.0850 C.ar    1  UNL1        0.1133
     14 C          -5.0116  -18.8094   22.0092 C.ar    1  UNL1        0.0676
     15 C          -4.3531  -19.0583   20.6847 C.ar    1  UNL1        0.0544
     16 C          -1.7494  -17.6648   18.3198 C.3     1  UNL1        0.2525
     17 O          -2.3000  -18.8138   19.1114 O.3     1  UNL1       -0.4698
     18 C          -7.8845  -17.1705   22.3933 C.2     1  UNL1        0.1964
     19 O          -7.7478  -15.9191   21.5778 O.2     1  UNL1       -0.2892
     20 C          -8.3246  -17.0886   23.8250 C.2     1  UNL1        0.0569
     21 C          -9.5559  -17.7178   24.4063 C.2     1  UNL1        0.1014
     22 N          -9.6028  -17.3811   25.8673 N.2     1  UNL1       -0.2477
     23 C          -8.4005  -16.5437   26.1889 C.2     1  UNL1        0.0635
     24 C          -7.9230  -15.9225   27.4679 C.3     1  UNL1        0.0717
     25 C          -6.6556  -15.1205   27.4848 C.2     1  UNL1       -0.0198
     26 C          -5.8656  -14.9397   26.2225 C.2     1  UNL1       -0.0041
     27 C          -6.3431  -15.5610   24.9435 C.2     1  UNL1        0.0010
     28 C          -7.6105  -16.3629   24.9266 C.2     1  UNL1        0.0182
@<TRIPOS>BOND
     1    16    17    1
     2    17    10    1
     3    10    11   ar
     4    11    12   ar
     5    12    13   ar
     6    13    14   ar
     7    14     8    1
     8     8     1    1
     9     1    18    1
    10    18    19    2
    11    18    20    1
    12    20    21    2
    13    21    22    1
    14    22    23    2
    15    23    24    1
    16    24    25    1
    17    25    26    2
    18    26    27    1
    19    27    28    2
    20     1     2    1
    21     2     3   ar
    22     3     4   ar
    23     4     5   ar
    24     5     6   ar
    25     6     7   ar
    26    14    15   ar
    27    15    10   ar
    28    28    20    1
    29     7     2   ar
    30    28    23    1
    31     8     9    1
@<TRIPOS>MOLECULE
*****
 28 31 0 0 0
SMALL
GASTEIGER

@<TRIPOS>ATOM
      1 C          -7.1012  -19.5920   21.1812 C.3     1  UNL1        0.1549
      2 C          -7.6385  -20.2845   19.9639 C.ar    1  UNL1        0.0028
      3 C          -8.8280  -19.7212   19.2443 C.ar    1  UNL1       -0.0023
      4 C          -9.3654  -20.4136   18.0270 C.ar    1  UNL1       -0.0003
      5 C          -8.7132  -21.6694   17.5294 C.ar    1  UNL1       -0.0000
      6 C          -7.5238  -22.2328   18.2490 C.ar    1  UNL1       -0.0003
      7 C          -6.9864  -21.5403   19.4663 C.ar    1  UNL1       -0.0023
      8 N          -5.7575  -19.9725   21.7286 N.pl3   1  UNL1       -0.3234
      9 H          -5.6125  -20.8749   22.0945 H       1  UNL1        0.1475
     10 C          -2.5402  -17.9607   20.5659 C.ar    1  UNL1        0.1590
     11 C          -2.3888  -16.9891   21.6986 C.ar    1  UNL1        0.1357
     12 N          -3.3603  -17.0119   22.8413 N.ar    1  UNL1       -0.2379
     13 C          -4.4832  -18.0064   22.8512 C.ar    1  UNL1        0.1133
     14 C          -4.6346  -18.9780   21.7185 C.ar    1  UNL1        0.0676
     15 C          -3.6631  -18.9552   20.5759 C.ar    1  UNL1        0.0544
     16 C          -0.0944  -18.0071   19.6908 C.3     1  UNL1        0.2525
     17 O          -1.5687  -17.9379   19.4233 O.3     1  UNL1       -0.4698
     18 C          -7.9076  -18.5191   21.8510 C.2     1  UNL1        0.1964
     19 O          -7.5496  -17.0764   21.6505 O.2     1  UNL1       -0.2892
     20 C          -9.0720  -18.8890   22.7213 C.2     1  UNL1        0.0569
     21 C          -9.1126  -20.0200   23.7058 C.2     1  UNL1        0.1014
     22 N         -10.4659  -20.0228   24.3528 N.2     1  UNL1       -0.2477
     23 C         -11.2616  -18.8936   23.7682 C.2     1  UNL1        0.0635
     24 C         -12.6593  -18.4130   24.0238 C.3     1  UNL1        0.0717
     25 C         -13.1955  -17.2316   23.2710 C.2     1  UNL1       -0.0198
     26 C         -12.3340  -16.5308   22.2626 C.2     1  UNL1       -0.0041
     27 C         -10.9363  -17.0115   22.0071 C.2     1  UNL1        0.0010
     28 C         -10.4001  -18.1929   22.7599 C.2     1  UNL1        0.0182
@<TRIPOS>BOND
     1    16    17    1
     2    17    10    1
     3    10    11   ar
     4    11    12   ar
     5    12    13   ar
     6    13    14   ar
     7    14     8    1
     8     8     1    1
     9     1    18    1
    10    18    19    2
    11    18    20    1
    12    20    21    2
    13    21    22    1
    14    22    23    2
    15    23    24    1
    16    24    25    1
    17    25    26    2
    18    26    27    1
    19    27    28    2
    20     1     2    1
    21     2     3   ar
    22     3     4   ar
    23     4     5   ar
    24     5     6   ar
    25     6     7   ar
    26    14    15   ar
    27    15    10   ar
    28    28    20    1
    29     7     2   ar
    30    28    23    1
    31     8     9    1
@<TRIPOS>MOLECULE
*****
 28 31 0 0 0
SMALL
GASTEIGER

@<TRIPOS>ATOM
      1 C          -7.4832  -18.5625   21.8638 C.3     1  UNL1        0.1549
      2 C          -8.1795  -19.1877   20.6916 C.ar    1  UNL1        0.0028
      3 C          -9.6695  -19.3598   20.7087 C.ar    1  UNL1       -0.0023
      4 C         -10.3658  -19.9851   19.5364 C.ar    1  UNL1       -0.0003
      5 C          -9.5720  -20.4382   18.3470 C.ar    1  UNL1       -0.0000
      6 C          -8.0820  -20.2661   18.3299 C.ar    1  UNL1       -0.0003
      7 C          -7.3857  -19.6408   19.5022 C.ar    1  UNL1       -0.0023
      8 N          -6.3148  -19.2560   22.4994 N.pl3   1  UNL1       -0.3234
      9 H          -6.4656  -19.9984   23.1282 H       1  UNL1        0.1475
     10 C          -2.9605  -18.6052   20.4809 C.ar    1  UNL1        0.1590
     11 C          -2.1207  -17.9430   21.5327 C.ar    1  UNL1        0.1357
     12 N          -2.6789  -17.7185   22.9067 N.ar    1  UNL1       -0.2379
     13 C          -4.0770  -18.1562   23.2289 C.ar    1  UNL1        0.1133
     14 C          -4.9168  -18.8183   22.1771 C.ar    1  UNL1        0.0676
     15 C          -4.3585  -19.0428   20.8031 C.ar    1  UNL1        0.0544
     16 C          -1.7295  -17.7047   18.3776 C.3     1  UNL1        0.2525
     17 O          -2.4022  -18.8296   19.1069 O.3     1  UNL1       -0.4698
     18 C          -7.9553  -17.2436   22.4006 C.2     1  UNL1        0.1964
     19 O          -6.9799  -16.3037   23.0447 O.2     1  UNL1       -0.2892
     20 C          -9.4027  -16.8650   22.2930 C.2     1  UNL1        0.0569
     21 C          -9.9744  -15.8146   21.3875 C.2     1  UNL1        0.1014
     22 N         -11.4576  -15.7707   21.6071 N.2     1  UNL1       -0.2477
     23 C         -11.8026  -16.7939   22.6482 C.2     1  UNL1        0.0635
     24 C         -13.1091  -17.1972   23.2649 C.3     1  UNL1        0.0717
     25 C         -13.1456  -18.2768   24.3056 C.2     1  UNL1       -0.0198
     26 C         -11.8756  -18.9531   24.7296 C.2     1  UNL1       -0.0041
     27 C         -10.5691  -18.5498   24.1129 C.2     1  UNL1        0.0010
     28 C         -10.5326  -17.4702   23.0721 C.2     1  UNL1        0.0182
@<TRIPOS>BOND
     1    16    17    1
     2    17    10    1
     3    10    11   ar
     4    11    12   ar
     5    12    13   ar
     6    13    14   ar
     7    14     8    1
     8     8     1    1
     9     1    18    1
    10    18    19    2
    11    18    20    1
    12    20    21    2
    13    21    22    1
    14    22    23    2
    15    23    24    1
    16    24    25    1
    17    25    26    2
    18    26    27    1
    19    27    28    2
    20     1     2    1
    21     2     3   ar
    22     3     4   ar
    23     4     5   ar
    24     5     6   ar
    25     6     7   ar
    26    14    15   ar
    27    15    10   ar
    28    28    20    1
    29     7     2   ar
    30    28    23    1
    31     8     9    1
@<TRIPOS>MOLECULE
*****
 28 31 0 0 0
SMALL
GASTEIGER

@<TRIPOS>ATOM
      1 C         -13.5428   -5.2550   18.4173 C.3     1  UNL1        0.1549
      2 C         -12.1181   -5.1065   17.9720 C.ar    1  UNL1        0.0028
      3 C         -11.0133   -5.0881   18.9864 C.ar    1  UNL1       -0.0023
      4 C          -9.5886   -4.9396   18.5411 C.ar    1  UNL1       -0.0003
      5 C          -9.2689   -4.8096   17.0814 C.ar    1  UNL1       -0.0000
      6 C         -10.3738   -4.8281   16.0670 C.ar    1  UNL1       -0.0003
      7 C         -11.7984   -4.9765   16.5123 C.ar    1  UNL1       -0.0023
      8 N         -14.4819   -6.1345   17.6462 N.pl3   1  UNL1       -0.3234
      9 H         -14.6353   -5.9698   16.6878 H       1  UNL1        0.1475
     10 C         -17.1777   -8.1431   19.7551 C.ar    1  UNL1        0.1590
     11 C         -16.5976   -9.5257   19.7132 C.ar    1  UNL1        0.1357
     12 N         -15.3123   -9.7779   18.9823 N.ar    1  UNL1       -0.2379
     13 C         -14.6070   -8.6475   18.2933 C.ar    1  UNL1        0.1133
     14 C         -15.1872   -7.2648   18.3352 C.ar    1  UNL1        0.0676
     15 C         -16.4725   -7.0126   19.0661 C.ar    1  UNL1        0.0544
     16 C         -19.6615   -8.7512   20.2148 C.3     1  UNL1        0.2525
     17 O         -18.4631   -7.8908   20.4860 O.3     1  UNL1       -0.4698
     18 C         -14.0284   -4.5240   19.6339 C.2     1  UNL1        0.1964
     19 O         -13.8022   -5.1051   20.9981 O.2     1  UNL1       -0.2892
     20 C         -14.7402   -3.2119   19.4861 C.2     1  UNL1        0.0569
     21 C         -16.1982   -2.9665   19.7389 C.2     1  UNL1        0.1014
     22 N         -16.4780   -1.5178   19.4687 N.2     1  UNL1       -0.2477
     23 C         -15.1929   -0.8679   19.0488 C.2     1  UNL1        0.0635
     24 C         -14.8620    0.5419   18.6581 C.3     1  UNL1        0.0717
     25 C         -13.4571    0.9048   18.2782 C.2     1  UNL1       -0.0198
     26 C         -12.3830   -0.1423   18.2890 C.2     1  UNL1       -0.0041
     27 C         -12.7139   -1.5522   18.6797 C.2     1  UNL1        0.0010
     28 C         -14.1189   -1.9150   19.0596 C.2     1  UNL1        0.0182
@<TRIPOS>BOND
     1    16    17    1
     2    17    10    1
     3    10    11   ar
     4    11    12   ar
     5    12    13   ar
     6    13    14   ar
     7    14     8    1
     8     8     1    1
     9     1    18    1
    10    18    19    2
    11    18    20    1
    12    20    21    2
    13    21    22    1
    14    22    23    2
    15    23    24    1
    16    24    25    1
    17    25    26    2
    18    26    27    1
    19    27    28    2
    20     1     2    1
    21     2     3   ar
    22     3     4   ar
    23     4     5   ar
    24     5     6   ar
    25     6     7   ar
    26    14    15   ar
    27    15    10   ar
    28    28    20    1
    29     7     2   ar
    30    28    23    1
    31     8     9    1
@<TRIPOS>MOLECULE
*****
 28 31 0 0 0
SMALL
GASTEIGER

@<TRIPOS>ATOM
      1 C         -13.5903   -4.6395   18.9018 C.3     1  UNL1        0.1549
      2 C         -12.2249   -5.2604   18.9071 C.ar    1  UNL1        0.0028
      3 C         -12.0733   -6.7407   18.7178 C.ar    1  UNL1       -0.0023
      4 C         -10.7079   -7.3616   18.7231 C.ar    1  UNL1       -0.0003
      5 C          -9.4940   -6.5022   18.9178 C.ar    1  UNL1       -0.0000
      6 C          -9.6456   -5.0219   19.1072 C.ar    1  UNL1       -0.0003
      7 C         -11.0110   -4.4010   19.1018 C.ar    1  UNL1       -0.0023
      8 N         -14.6763   -5.2232   18.0475 N.pl3   1  UNL1       -0.3234
      9 H         -14.6793   -5.0613   17.0764 H       1  UNL1        0.1475
     10 C         -16.6275   -8.3530   19.5126 C.ar    1  UNL1        0.1590
     11 C         -17.9210   -7.7139   19.9231 C.ar    1  UNL1        0.1357
     12 N         -18.1329   -6.2445   19.7084 N.ar    1  UNL1       -0.2379
     13 C         -17.0513   -5.4143   19.0832 C.ar    1  UNL1        0.1133
     14 C         -15.7578   -6.0535   18.6727 C.ar    1  UNL1        0.0676
     15 C         -15.5460   -7.5228   18.8874 C.ar    1  UNL1        0.0544
     16 C         -17.0331  -10.8145   18.7869 C.3     1  UNL1        0.2525
     17 O         -16.4157   -9.8224   19.7273 O.3     1  UNL1       -0.4698
     18 C         -13.8697   -3.4348   19.7509 C.2     1  UNL1        0.1964
     19 O         -13.7673   -3.5298   21.2443 O.2     1  UNL1       -0.2892
     20 C         -14.2516   -2.1352   19.1064 C.2     1  UNL1        0.0569
     21 C         -15.6327   -1.5532   19.0464 C.2     1  UNL1        0.1014
     22 N         -15.5540   -0.2478   18.3116 N.2     1  UNL1       -0.2477
     23 C         -14.1243   -0.0231   17.9175 C.2     1  UNL1        0.0635
     24 C         -13.4513    1.0929   17.1749 C.3     1  UNL1        0.0717
     25 C         -11.9735    1.0424   16.9234 C.2     1  UNL1       -0.0198
     26 C         -11.1685   -0.1241   17.4146 C.2     1  UNL1       -0.0041
     27 C         -11.8414   -1.2401   18.1573 C.2     1  UNL1        0.0010
     28 C         -13.3193   -1.1897   18.4087 C.2     1  UNL1        0.0182
@<TRIPOS>BOND
     1    16    17    1
     2    17    10    1
     3    10    11   ar
     4    11    12   ar
     5    12    13   ar
     6    13    14   ar
     7    14     8    1
     8     8     1    1
     9     1    18    1
    10    18    19    2
    11    18    20    1
    12    20    21    2
    13    21    22    1
    14    22    23    2
    15    23    24    1
    16    24    25    1
    17    25    26    2
    18    26    27    1
    19    27    28    2
    20     1     2    1
    21     2     3   ar
    22     3     4   ar
    23     4     5   ar
    24     5     6   ar
    25     6     7   ar
    26    14    15   ar
    27    15    10   ar
    28    28    20    1
    29     7     2   ar
    30    28    23    1
    31     8     9    1
