@<TRIPOS>MOLECULE
*****
 25 28 0 0 0
SMALL
GASTEIGER

@<TRIPOS>ATOM
      1 C           7.0199   -4.4917   23.5278 C.ar    1  UNL1        0.1840
      2 N           8.0377   -5.2888   22.7671 N.ar    1  UNL1       -0.1274
      3 N           7.8557   -4.9994   21.3065 N.ar    1  UNL1       -0.1315
      4 C           6.7255   -4.0235   21.1646 C.ar    1  UNL1        0.1636
      5 N           6.2089   -3.7096   22.5375 N.ar    1  UNL1       -0.2944
      6 C           5.0669   -2.7524   22.7084 C.3     1  UNL1        0.1302
      7 C           4.4414   -2.1089   21.5065 C.3     1  UNL1        0.1186
      8 N           4.9579   -2.4227   20.1336 N.am    1  UNL1       -0.2670
      9 C           4.3323   -1.7792   18.9317 C.2     1  UNL1        0.2494
     10 O           4.8489   -2.0930   17.5588 O.2     1  UNL1       -0.2699
     11 C           6.1000   -3.3800   19.9627 C.3     1  UNL1        0.1599
     12 C           6.1681   -1.8761   27.9361 C.3     1  UNL1        0.0521
     13 C           6.4181   -3.1710   27.2215 C.ar    1  UNL1        0.0595
     14 C           6.4921   -4.4531   27.9966 C.ar    1  UNL1        0.0148
     15 C           6.7421   -5.7481   27.2821 C.ar    1  UNL1        0.0029
     16 C           6.9181   -5.7610   25.7925 C.ar    1  UNL1        0.0222
     17 C           6.8440   -4.4788   25.0174 C.ar    1  UNL1        0.1167
     18 N           6.5940   -3.1839   25.7319 N.ar    1  UNL1       -0.2466
     19 C           3.1903   -0.8219   19.1026 C.ar    1  UNL1        0.0537
     20 C           2.0075   -1.2074   19.9407 C.ar    1  UNL1        0.0068
     21 C           0.8654   -0.2501   20.1117 C.ar    1  UNL1        0.0298
     22 C           0.9061    1.0927   19.4444 C.ar    1  UNL1        0.1401
     23 F          -0.2359    2.0500   19.6154 F       1  UNL1       -0.2042
     24 C           2.0889    1.4782   18.6063 C.ar    1  UNL1        0.0298
     25 C           3.2309    0.5209   18.4353 C.ar    1  UNL1        0.0068
@<TRIPOS>BOND
     1    12    13    1
     2    13    14   ar
     3    14    15   ar
     4    15    16   ar
     5    16    17   ar
     6    17     1    1
     7     1     2   ar
     8     2     3   ar
     9     3     4   ar
    10     4     5   ar
    11     5     6    1
    12     6     7    1
    13     7     8    1
    14     8     9   am
    15     9    10    2
    16     9    19    1
    17    19    20   ar
    18    20    21   ar
    19    21    22   ar
    20    22    23    1
    21    22    24   ar
    22    24    25   ar
    23     8    11    1
    24    17    18   ar
    25    18    13   ar
    26     5     1   ar
    27    25    19   ar
    28    11     4    1
@<TRIPOS>MOLECULE
*****
 25 28 0 0 0
SMALL
GASTEIGER

@<TRIPOS>ATOM
      1 C           4.0682    1.0472   35.2243 C.ar    1  UNL1        0.1840
      2 N           5.1617    0.0290   35.3565 N.ar    1  UNL1       -0.1274
      3 N           5.2458   -0.7310   34.0661 N.ar    1  UNL1       -0.1315
      4 C           4.2043   -0.1825   33.1363 C.ar    1  UNL1        0.1636
      5 N           3.4765    0.9165   33.8522 N.ar    1  UNL1       -0.2944
      6 C           2.3690    1.6563   33.1621 C.3     1  UNL1        0.1302
      7 C           1.9894    1.2970   31.7562 C.3     1  UNL1        0.1186
      8 N           2.7171    0.1980   31.0403 N.am    1  UNL1       -0.2670
      9 C           2.3374   -0.1612   29.6343 C.2     1  UNL1        0.2494
     10 O           3.0652   -1.2603   28.9184 O.2     1  UNL1       -0.2699
     11 C           3.8246   -0.5417   31.7304 C.3     1  UNL1        0.1599
     12 C           0.9645    2.3132   39.1948 C.3     1  UNL1        0.0521
     13 C           2.0895    2.6576   38.2643 C.ar    1  UNL1        0.0595
     14 C           2.7876    3.9794   38.3887 C.ar    1  UNL1        0.0148
     15 C           3.9126    4.3238   37.4583 C.ar    1  UNL1        0.0029
     16 C           4.3395    3.3464   36.4035 C.ar    1  UNL1        0.0222
     17 C           3.6413    2.0246   36.2791 C.ar    1  UNL1        0.1167
     18 N           2.5164    1.6802   37.2095 N.ar    1  UNL1       -0.2466
     19 C           1.2300    0.5785   28.9442 C.ar    1  UNL1        0.0537
     20 C          -0.1673    0.0337   28.9723 C.ar    1  UNL1        0.0068
     21 C          -1.2748    0.7736   28.2822 C.ar    1  UNL1        0.0298
     22 C          -0.9850    2.0581   27.5640 C.ar    1  UNL1        0.1401
     23 F          -2.0924    2.7979   26.8739 F       1  UNL1       -0.2042
     24 C           0.4123    2.6029   27.5358 C.ar    1  UNL1        0.0298
     25 C           1.5198    1.8631   28.2259 C.ar    1  UNL1        0.0068
@<TRIPOS>BOND
     1    12    13    1
     2    13    14   ar
     3    14    15   ar
     4    15    16   ar
     5    16    17   ar
     6    17     1    1
     7     1     2   ar
     8     2     3   ar
     9     3     4   ar
    10     4     5   ar
    11     5     6    1
    12     6     7    1
    13     7     8    1
    14     8     9   am
    15     9    10    2
    16     9    19    1
    17    19    20   ar
    18    20    21   ar
    19    21    22   ar
    20    22    23    1
    21    22    24   ar
    22    24    25   ar
    23     8    11    1
    24    17    18   ar
    25    18    13   ar
    26     5     1   ar
    27    25    19   ar
    28    11     4    1
@<TRIPOS>MOLECULE
*****
 25 28 0 0 0
SMALL
GASTEIGER

@<TRIPOS>ATOM
      1 C           1.8102    1.9044   25.4037 C.ar    1  UNL1        0.1840
      2 N           1.9294    3.3815   25.1717 N.ar    1  UNL1       -0.1274
      3 N           2.5705    3.5899   23.8317 N.ar    1  UNL1       -0.1315
      4 C           2.8475    2.2417   23.2356 C.ar    1  UNL1        0.1636
      5 N           2.3776    1.1999   24.2072 N.ar    1  UNL1       -0.2944
      6 C           2.5271   -0.2556   23.8768 C.3     1  UNL1        0.1302
      7 C           3.1465   -0.6693   22.5748 C.3     1  UNL1        0.1186
      8 N           3.6164    0.3725   21.6033 N.am    1  UNL1       -0.2670
      9 C           4.2359   -0.0413   20.3013 C.2     1  UNL1        0.2494
     10 O           4.7058    1.0004   19.3297 O.2     1  UNL1       -0.2699
     11 C           3.4669    1.8279   21.9337 C.3     1  UNL1        0.1599
     12 C           2.4464   -0.6852   29.8634 C.3     1  UNL1        0.0521
     13 C           1.5442   -0.0477   28.8488 C.ar    1  UNL1        0.0595
     14 C           0.0578   -0.0675   29.0494 C.ar    1  UNL1        0.0148
     15 C          -0.8445    0.5700   28.0348 C.ar    1  UNL1        0.0029
     16 C          -0.2604    1.2273   26.8196 C.ar    1  UNL1        0.0222
     17 C           1.2261    1.2471   26.6190 C.ar    1  UNL1        0.1167
     18 N           2.1283    0.6096   27.6336 N.ar    1  UNL1       -0.2466
     19 C           4.3854   -1.4968   19.9709 C.ar    1  UNL1        0.0537
     20 C           5.7204   -2.1653   20.1148 C.ar    1  UNL1        0.0068
     21 C           5.8699   -3.6208   19.7844 C.ar    1  UNL1        0.0298
     22 C           4.6843   -4.4078   19.3100 C.ar    1  UNL1        0.1401
     23 F           4.8338   -5.8633   18.9796 F       1  UNL1       -0.2042
     24 C           3.3492   -3.7393   19.1661 C.ar    1  UNL1        0.0298
     25 C           3.1997   -2.2838   19.4965 C.ar    1  UNL1        0.0068
@<TRIPOS>BOND
     1    12    13    1
     2    13    14   ar
     3    14    15   ar
     4    15    16   ar
     5    16    17   ar
     6    17     1    1
     7     1     2   ar
     8     2     3   ar
     9     3     4   ar
    10     4     5   ar
    11     5     6    1
    12     6     7    1
    13     7     8    1
    14     8     9   am
    15     9    10    2
    16     9    19    1
    17    19    20   ar
    18    20    21   ar
    19    21    22   ar
    20    22    23    1
    21    22    24   ar
    22    24    25   ar
    23     8    11    1
    24    17    18   ar
    25    18    13   ar
    26     5     1   ar
    27    25    19   ar
    28    11     4    1
@<TRIPOS>MOLECULE
*****
 25 28 0 0 0
SMALL
GASTEIGER

@<TRIPOS>ATOM
      1 C          -0.9745    2.9168   20.2848 C.ar    1  UNL1        0.1840
      2 N          -1.1835    3.5762   18.9538 N.ar    1  UNL1       -0.1274
      3 N          -0.1833    3.0064   17.9921 N.ar    1  UNL1       -0.1315
      4 C           0.6439    1.9949   18.7287 C.ar    1  UNL1        0.1636
      5 N           0.1549    1.9395   20.1457 N.ar    1  UNL1       -0.2944
      6 C           0.8012    1.0063   21.1262 C.3     1  UNL1        0.1302
      7 C           1.9365    0.1286   20.6898 C.3     1  UNL1        0.1186
      8 N           2.4255    0.1840   19.2728 N.am    1  UNL1       -0.2670
      9 C           3.5609   -0.6939   18.8364 C.2     1  UNL1        0.2494
     10 O           4.0500   -0.6385   17.4194 O.2     1  UNL1       -0.2699
     11 C           1.7792    1.1171   18.2923 C.3     1  UNL1        0.1599
     12 C          -5.5392    3.4747   22.7039 C.3     1  UNL1        0.0521
     13 C          -4.0398    3.4661   22.7449 C.ar    1  UNL1        0.0595
     14 C          -3.3233    3.7280   24.0365 C.ar    1  UNL1        0.0148
     15 C          -1.8239    3.7194   24.0775 C.ar    1  UNL1        0.0029
     16 C          -1.0410    3.4490   22.8269 C.ar    1  UNL1        0.0222
     17 C          -1.7575    3.1872   21.5353 C.ar    1  UNL1        0.1167
     18 N          -3.2568    3.1958   21.4944 N.ar    1  UNL1       -0.2466
     19 C           4.2072   -1.6270   19.8169 C.ar    1  UNL1        0.0537
     20 C           5.3213   -1.1387   20.6947 C.ar    1  UNL1        0.0068
     21 C           5.9676   -2.0720   21.6752 C.ar    1  UNL1        0.0298
     22 C           5.4998   -3.4934   21.7780 C.ar    1  UNL1        0.1401
     23 F           6.1461   -4.4266   22.7585 F       1  UNL1       -0.2042
     24 C           4.3857   -3.9817   20.9002 C.ar    1  UNL1        0.0298
     25 C           3.7394   -3.0486   19.9197 C.ar    1  UNL1        0.0068
@<TRIPOS>BOND
     1    12    13    1
     2    13    14   ar
     3    14    15   ar
     4    15    16   ar
     5    16    17   ar
     6    17     1    1
     7     1     2   ar
     8     2     3   ar
     9     3     4   ar
    10     4     5   ar
    11     5     6    1
    12     6     7    1
    13     7     8    1
    14     8     9   am
    15     9    10    2
    16     9    19    1
    17    19    20   ar
    18    20    21   ar
    19    21    22   ar
    20    22    23    1
    21    22    24   ar
    22    24    25   ar
    23     8    11    1
    24    17    18   ar
    25    18    13   ar
    26     5     1   ar
    27    25    19   ar
    28    11     4    1
@<TRIPOS>MOLECULE
*****
 25 28 0 0 0
SMALL
GASTEIGER

@<TRIPOS>ATOM
      1 C           5.9147   -1.2914   33.1790 C.ar    1  UNL1        0.1840
      2 N           5.8857   -0.8050   34.5976 N.ar    1  UNL1       -0.1274
      3 N           4.7397    0.1529   34.7357 N.ar    1  UNL1       -0.1315
      4 C           4.0604    0.2584   33.4025 C.ar    1  UNL1        0.1636
      5 N           4.7866   -0.6342   32.4404 N.ar    1  UNL1       -0.2944
      6 C           4.3269   -0.7332   31.0160 C.3     1  UNL1        0.1302
      7 C           3.1409    0.0603   30.5538 C.3     1  UNL1        0.1186
      8 N           2.4147    0.9530   31.5160 N.am    1  UNL1       -0.2670
      9 C           1.2287    1.7466   31.0538 C.2     1  UNL1        0.2494
     10 O           0.5024    2.6392   32.0159 O.2     1  UNL1       -0.2699
     11 C           2.8744    1.0520   32.9404 C.3     1  UNL1        0.1599
     12 C           6.9074   -5.6647   30.5544 C.3     1  UNL1        0.0521
     13 C           7.3954   -4.4509   31.2882 C.ar    1  UNL1        0.0595
     14 C           8.8678   -4.2099   31.4434 C.ar    1  UNL1        0.0148
     15 C           9.3558   -2.9961   32.1772 C.ar    1  UNL1        0.0029
     16 C           8.3715   -2.0232   32.7557 C.ar    1  UNL1        0.0222
     17 C           6.8990   -2.2642   32.6004 C.ar    1  UNL1        0.1167
     18 N           6.4111   -3.4780   31.8667 N.ar    1  UNL1       -0.2466
     19 C           0.7689    1.6475   29.6294 C.ar    1  UNL1        0.0537
     20 C           1.3920    2.5172   28.5780 C.ar    1  UNL1        0.0068
     21 C           0.9322    2.4181   27.1536 C.ar    1  UNL1        0.0298
     22 C          -0.1506    1.4494   26.7807 C.ar    1  UNL1        0.1401
     23 F          -0.6103    1.3503   25.3563 F       1  UNL1       -0.2042
     24 C          -0.7736    0.5797   27.8321 C.ar    1  UNL1        0.0298
     25 C          -0.3139    0.6787   29.2564 C.ar    1  UNL1        0.0068
@<TRIPOS>BOND
     1    12    13    1
     2    13    14   ar
     3    14    15   ar
     4    15    16   ar
     5    16    17   ar
     6    17     1    1
     7     1     2   ar
     8     2     3   ar
     9     3     4   ar
    10     4     5   ar
    11     5     6    1
    12     6     7    1
    13     7     8    1
    14     8     9   am
    15     9    10    2
    16     9    19    1
    17    19    20   ar
    18    20    21   ar
    19    21    22   ar
    20    22    23    1
    21    22    24   ar
    22    24    25   ar
    23     8    11    1
    24    17    18   ar
    25    18    13   ar
    26     5     1   ar
    27    25    19   ar
    28    11     4    1
@<TRIPOS>MOLECULE
*****
 25 28 0 0 0
SMALL
GASTEIGER

@<TRIPOS>ATOM
      1 C           3.5378    0.0952   19.5313 C.ar    1  UNL1        0.1840
      2 N           4.4192    0.8443   18.5763 N.ar    1  UNL1       -0.1274
      3 N           3.7389    2.1368   18.2345 N.ar    1  UNL1       -0.1315
      4 C           2.4373    2.1864   18.9782 C.ar    1  UNL1        0.1636
      5 N           2.3130    0.9246   19.7797 N.ar    1  UNL1       -0.2944
      6 C           1.1005    0.6939   20.6321 C.3     1  UNL1        0.1302
      7 C           0.0124    1.7251   20.6831 C.3     1  UNL1        0.1186
      8 N           0.1367    2.9869   19.8816 N.am    1  UNL1       -0.2670
      9 C          -0.9516    4.0180   19.9326 C.2     1  UNL1        0.2494
     10 O          -0.8273    5.2798   19.1311 O.2     1  UNL1       -0.2699
     11 C           1.3491    3.2175   19.0291 C.3     1  UNL1        0.1599
     12 C           4.3099   -5.0130   18.9738 C.3     1  UNL1        0.0521
     13 C           4.2161   -3.8018   19.8537 C.ar    1  UNL1        0.0595
     14 C           4.4145   -3.9334   21.3347 C.ar    1  UNL1        0.0148
     15 C           4.3208   -2.7222   22.2145 C.ar    1  UNL1        0.0029
     16 C           4.0285   -1.3794   21.6134 C.ar    1  UNL1        0.0222
     17 C           3.8301   -1.2477   20.1324 C.ar    1  UNL1        0.1167
     18 N           3.9239   -2.4589   19.2526 N.ar    1  UNL1       -0.2466
     19 C          -2.1640    3.7874   20.7850 C.ar    1  UNL1        0.0537
     20 C          -3.4499    3.3408   20.1550 C.ar    1  UNL1        0.0068
     21 C          -4.6624    3.1101   21.0075 C.ar    1  UNL1        0.0298
     22 C          -4.5889    3.3260   22.4900 C.ar    1  UNL1        0.1401
     23 F          -5.8014    3.0953   23.3425 F       1  UNL1       -0.2042
     24 C          -3.3030    3.7726   23.1201 C.ar    1  UNL1        0.0298
     25 C          -2.0906    4.0032   22.2677 C.ar    1  UNL1        0.0068
@<TRIPOS>BOND
     1    12    13    1
     2    13    14   ar
     3    14    15   ar
     4    15    16   ar
     5    16    17   ar
     6    17     1    1
     7     1     2   ar
     8     2     3   ar
     9     3     4   ar
    10     4     5   ar
    11     5     6    1
    12     6     7    1
    13     7     8    1
    14     8     9   am
    15     9    10    2
    16     9    19    1
    17    19    20   ar
    18    20    21   ar
    19    21    22   ar
    20    22    23    1
    21    22    24   ar
    22    24    25   ar
    23     8    11    1
    24    17    18   ar
    25    18    13   ar
    26     5     1   ar
    27    25    19   ar
    28    11     4    1
@<TRIPOS>MOLECULE
*****
 25 28 0 0 0
SMALL
GASTEIGER

@<TRIPOS>ATOM
      1 C          -0.4996    2.8619   24.6805 C.ar    1  UNL1        0.1840
      2 N          -1.5400    3.8661   24.2813 N.ar    1  UNL1       -0.1274
      3 N          -1.6279    3.8721   22.7839 N.ar    1  UNL1       -0.1315
      4 C          -0.6419    2.8717   22.2576 C.ar    1  UNL1        0.1636
      5 N           0.0554    2.2473   23.4298 N.ar    1  UNL1       -0.2944
      6 C           1.1057    1.1999   23.2068 C.3     1  UNL1        0.1302
      7 C           1.4586    0.7768   21.8117 C.3     1  UNL1        0.1186
      8 N           0.7612    1.4011   20.6396 N.am    1  UNL1       -0.2670
      9 C           1.1142    0.9779   19.2444 C.2     1  UNL1        0.2494
     10 O           0.4168    1.6022   18.0722 O.2     1  UNL1       -0.2699
     11 C          -0.2890    2.4485   20.8625 C.3     1  UNL1        0.1599
     12 C          -0.8853   -0.1598   28.8900 C.3     1  UNL1        0.0521
     13 C          -0.2795    1.0197   28.1887 C.ar    1  UNL1        0.0595
     14 C           0.7392    1.8678   28.8909 C.ar    1  UNL1        0.0148
     15 C           1.3449    3.0472   28.1896 C.ar    1  UNL1        0.0029
     16 C           0.9320    3.3787   26.7861 C.ar    1  UNL1        0.0222
     17 C          -0.0867    2.5305   26.0839 C.ar    1  UNL1        0.1167
     18 N          -0.6924    1.3511   26.7853 N.ar    1  UNL1       -0.2466
     19 C           2.1644   -0.0695   19.0214 C.ar    1  UNL1        0.0537
     20 C           3.1859    0.1113   17.9379 C.ar    1  UNL1        0.0068
     21 C           4.2362   -0.9363   17.7150 C.ar    1  UNL1        0.0298
     22 C           4.2650   -2.1645   18.5755 C.ar    1  UNL1        0.1401
     23 F           5.3153   -3.2119   18.3525 F       1  UNL1       -0.2042
     24 C           3.2436   -2.3453   19.6590 C.ar    1  UNL1        0.0298
     25 C           2.1933   -1.2979   19.8820 C.ar    1  UNL1        0.0068
@<TRIPOS>BOND
     1    12    13    1
     2    13    14   ar
     3    14    15   ar
     4    15    16   ar
     5    16    17   ar
     6    17     1    1
     7     1     2   ar
     8     2     3   ar
     9     3     4   ar
    10     4     5   ar
    11     5     6    1
    12     6     7    1
    13     7     8    1
    14     8     9   am
    15     9    10    2
    16     9    19    1
    17    19    20   ar
    18    20    21   ar
    19    21    22   ar
    20    22    23    1
    21    22    24   ar
    22    24    25   ar
    23     8    11    1
    24    17    18   ar
    25    18    13   ar
    26     5     1   ar
    27    25    19   ar
    28    11     4    1
@<TRIPOS>MOLECULE
*****
 25 28 0 0 0
SMALL
GASTEIGER

@<TRIPOS>ATOM
      1 C           2.2491   -0.0404   19.3188 C.ar    1  UNL1        0.1840
      2 N           1.4488    0.6330   18.2436 N.ar    1  UNL1       -0.1274
      3 N           0.4970    1.5866   18.9028 N.ar    1  UNL1       -0.1315
      4 C           0.7090    1.5026   20.3853 C.ar    1  UNL1        0.1636
      5 N           1.7919    0.4970   20.6424 N.ar    1  UNL1       -0.2944
      6 C           2.2217    0.2007   22.0486 C.3     1  UNL1        0.1302
      7 C           1.5686    0.9099   23.1977 C.3     1  UNL1        0.1186
      8 N           0.4857    1.9155   22.9406 N.am    1  UNL1       -0.2670
      9 C          -0.1674    2.6247   24.0898 C.2     1  UNL1        0.2494
     10 O          -1.2503    3.6303   23.8327 O.2     1  UNL1       -0.2699
     11 C           0.0559    2.2118   21.5344 C.3     1  UNL1        0.1599
     12 C           3.8009   -4.9988   19.4001 C.3     1  UNL1        0.0521
     13 C           4.0948   -3.5496   19.1481 C.ar    1  UNL1        0.0595
     14 C           5.4585   -3.1305   18.6847 C.ar    1  UNL1        0.0148
     15 C           5.7524   -1.6813   18.4326 C.ar    1  UNL1        0.0029
     16 C           4.6826   -0.6513   18.6440 C.ar    1  UNL1        0.0222
     17 C           3.3189   -1.0704   19.1074 C.ar    1  UNL1        0.1167
     18 N           3.0251   -2.5196   19.3594 N.ar    1  UNL1       -0.2466
     19 C           0.2624    2.3284   25.4959 C.ar    1  UNL1        0.0537
     20 C          -0.4773    1.3058   26.3066 C.ar    1  UNL1        0.0068
     21 C          -0.0474    1.0094   27.7128 C.ar    1  UNL1        0.0298
     22 C           1.1222    1.7357   28.3084 C.ar    1  UNL1        0.1401
     23 F           1.5520    1.4393   29.7145 F       1  UNL1       -0.2042
     24 C           1.8618    2.7583   27.4977 C.ar    1  UNL1        0.0298
     25 C           1.4320    3.0547   26.0916 C.ar    1  UNL1        0.0068
@<TRIPOS>BOND
     1    12    13    1
     2    13    14   ar
     3    14    15   ar
     4    15    16   ar
     5    16    17   ar
     6    17     1    1
     7     1     2   ar
     8     2     3   ar
     9     3     4   ar
    10     4     5   ar
    11     5     6    1
    12     6     7    1
    13     7     8    1
    14     8     9   am
    15     9    10    2
    16     9    19    1
    17    19    20   ar
    18    20    21   ar
    19    21    22   ar
    20    22    23    1
    21    22    24   ar
    22    24    25   ar
    23     8    11    1
    24    17    18   ar
    25    18    13   ar
    26     5     1   ar
    27    25    19   ar
    28    11     4    1
@<TRIPOS>MOLECULE
*****
 25 28 0 0 0
SMALL
GASTEIGER

@<TRIPOS>ATOM
      1 C           4.0796   -1.1270   18.7725 C.ar    1  UNL1        0.1840
      2 N           4.6093   -1.3575   17.3882 N.ar    1  UNL1       -0.1274
      3 N           5.8602   -2.1776   17.5013 N.ar    1  UNL1       -0.1315
      4 C           6.1036   -2.4538   18.9554 C.ar    1  UNL1        0.1636
      5 N           5.0031   -1.8045   19.7411 N.ar    1  UNL1       -0.2944
      6 C           4.9841   -1.9141   21.2369 C.3     1  UNL1        0.1302
      7 C           6.0656   -2.6730   21.9470 C.3     1  UNL1        0.1186
      8 N           7.1661   -3.3224   21.1613 N.am    1  UNL1       -0.2670
      9 C           8.2477   -4.0813   21.8716 C.2     1  UNL1        0.2494
     10 O           9.3481   -4.7306   21.0859 O.2     1  UNL1       -0.2699
     11 C           7.1851   -3.2128   19.6655 C.3     1  UNL1        0.1599
     12 C           1.1816    3.1656   18.3532 C.3     1  UNL1        0.0521
     13 C           1.3944    1.7918   18.9166 C.ar    1  UNL1        0.0595
     14 C           0.3710    1.1905   19.8337 C.ar    1  UNL1        0.0148
     15 C           0.5838   -0.1833   20.3970 C.ar    1  UNL1        0.0029
     16 C           1.8200   -0.9558   20.0434 C.ar    1  UNL1        0.0222
     17 C           2.8434   -0.3545   19.1262 C.ar    1  UNL1        0.1167
     18 N           2.6306    1.0193   18.5629 N.ar    1  UNL1       -0.2466
     19 C           8.2287   -4.1909   23.3674 C.ar    1  UNL1        0.0537
     20 C           8.8645   -3.1219   24.2059 C.ar    1  UNL1        0.0068
     21 C           8.8455   -3.2316   25.7018 C.ar    1  UNL1        0.0298
     22 C           8.1907   -4.4102   26.3592 C.ar    1  UNL1        0.1401
     23 F           8.1717   -4.5197   27.8550 F       1  UNL1       -0.2042
     24 C           7.5549   -5.4791   25.5207 C.ar    1  UNL1        0.0298
     25 C           7.5739   -5.3695   24.0249 C.ar    1  UNL1        0.0068
@<TRIPOS>BOND
     1    12    13    1
     2    13    14   ar
     3    14    15   ar
     4    15    16   ar
     5    16    17   ar
     6    17     1    1
     7     1     2   ar
     8     2     3   ar
     9     3     4   ar
    10     4     5   ar
    11     5     6    1
    12     6     7    1
    13     7     8    1
    14     8     9   am
    15     9    10    2
    16     9    19    1
    17    19    20   ar
    18    20    21   ar
    19    21    22   ar
    20    22    23    1
    21    22    24   ar
    22    24    25   ar
    23     8    11    1
    24    17    18   ar
    25    18    13   ar
    26     5     1   ar
    27    25    19   ar
    28    11     4    1
