@<TRIPOS>MOLECULE
*****
 29 32 0 0 0
SMALL
GASTEIGER

@<TRIPOS>ATOM
      1 C         -15.2238   -4.8371   18.7654 C.ar    1  UNL1        0.0200
      2 C         -15.8479   -4.3535   20.0408 C.ar    1  UNL1        0.0047
      3 C         -17.3300   -4.4685   20.2413 C.ar    1  UNL1        0.0369
      4 C         -18.1879   -5.0672   19.1664 C.ar    1  UNL1        0.1386
      5 C         -17.5638   -5.5508   17.8910 C.ar    1  UNL1        0.0369
      6 C         -16.0817   -5.4358   17.6905 C.ar    1  UNL1        0.0047
      7 N         -11.4251   -5.8442   18.2127 N.ar    1  UNL1       -0.2186
      8 N         -12.9071   -5.9592   18.4131 N.ar    1  UNL1       -0.1664
      9 C         -13.7417   -4.7220   18.5650 C.ar    1  UNL1        0.1071
     10 C         -13.0941   -3.3699   18.5165 C.ar    1  UNL1        0.0534
     11 S         -13.6547   -1.9837   18.6352 S.2     1  UNL1       -0.0847
     12 C         -12.5191   -1.0120   18.5082 C.ar    1  UNL1        0.0356
     13 C         -11.2566   -1.7977   18.3110 C.ar    1  UNL1        0.0123
     14 C         -11.6120   -3.2549   18.3161 C.ar    1  UNL1        0.0656
     15 C         -10.7775   -4.4921   18.1642 C.ar    1  UNL1        0.2768
     16 O          -9.2954   -4.3771   17.9638 O.2     1  UNL1       -0.2655
     17 C         -10.8476   -8.0244   16.9230 C.3     1  UNL1        0.0265
     18 C         -10.5905   -7.0813   18.0607 C.3     1  UNL1        0.1085
     19 C          -9.4989   -7.3754   19.0465 C.3     1  UNL1        0.0265
     20 O         -19.6700   -5.1823   19.3669 O.3     1  UNL1       -0.4754
     21 C         -20.3467   -6.5120   19.2132 C.3     1  UNL1        0.2068
     22 C         -20.3460   -7.4898   20.3507 C.3     1  UNL1        0.0646
     23 C         -19.6916   -8.8296   20.1876 C.3     1  UNL1        0.0759
     24 N         -18.3129   -8.9249   19.6045 N.3     1  UNL1       -0.2738
     25 C         -17.0515   -8.4146   20.2357 C.3     1  UNL1        0.0721
     26 C         -15.9125   -8.7215   19.3092 C.3     1  UNL1        0.0187
     27 C         -16.4699   -9.4215   18.1053 C.3     1  UNL1        0.0174
     28 C         -17.9535   -9.5472   18.2879 C.3     1  UNL1        0.0576
     29 C         -18.9098  -10.1835   17.3231 C.3     1  UNL1        0.0173
@<TRIPOS>BOND
     1    17    18    1
     2    18    19    1
     3    18     7    1
     4     7     8   ar
     5     8     9   ar
     6     9     1    1
     7     1     2   ar
     8     2     3   ar
     9     3     4   ar
    10     4    20    1
    11    20    21    1
    12    21    22    1
    13    22    23    1
    14    23    24    1
    15    24    25    1
    16    25    26    1
    17    26    27    1
    18    27    28    1
    19    28    29    1
    20     4     5   ar
    21     5     6   ar
    22     9    10   ar
    23    10    11   ar
    24    11    12   ar
    25    12    13   ar
    26    13    14   ar
    27    14    15   ar
    28    15    16    2
    29    15     7   ar
    30     6     1   ar
    31    14    10   ar
    32    28    24    1
@<TRIPOS>MOLECULE
*****
 29 32 0 0 0
SMALL
GASTEIGER

@<TRIPOS>ATOM
      1 C           6.0982   -3.4352   21.3509 C.ar    1  UNL1        0.0200
      2 C           7.0765   -2.6777   20.5029 C.ar    1  UNL1        0.0047
      3 C           6.6859   -2.2299   19.1256 C.ar    1  UNL1        0.0369
      4 C           5.3170   -2.5396   18.5964 C.ar    1  UNL1        0.1386
      5 C           4.3387   -3.2970   19.4444 C.ar    1  UNL1        0.0369
      6 C           4.7293   -3.7448   20.8217 C.ar    1  UNL1        0.0047
      7 N           7.5744   -5.6462   24.2974 N.ar    1  UNL1       -0.2186
      8 N           7.1837   -5.1984   22.9203 N.ar    1  UNL1       -0.1664
      9 C           6.4889   -3.8830   22.7282 C.ar    1  UNL1        0.1071
     10 C           6.1848   -3.0154   23.9134 C.ar    1  UNL1        0.0534
     11 S           5.5155   -1.6783   24.0332 S.2     1  UNL1       -0.0847
     12 C           5.4926   -1.2998   25.4845 C.ar    1  UNL1        0.0356
     13 C           6.1477   -2.4030   26.2617 C.ar    1  UNL1        0.0123
     14 C           6.5755   -3.4632   25.2907 C.ar    1  UNL1        0.0656
     15 C           7.2703   -4.7787   25.4827 C.ar    1  UNL1        0.2768
     16 O           7.6610   -5.2265   26.8599 O.2     1  UNL1       -0.2655
     17 C           7.7994   -7.9098   25.5526 C.3     1  UNL1        0.0265
     18 C           8.2693   -6.9617   24.4895 C.3     1  UNL1        0.1085
     19 C           9.4338   -7.3290   23.6185 C.3     1  UNL1        0.0265
     20 O           4.9264   -2.0918   17.2191 O.3     1  UNL1       -0.4754
     21 C           4.3055   -0.7414   17.0174 C.3     1  UNL1        0.2068
     22 C           4.9701    0.4811   17.5777 C.3     1  UNL1        0.0646
     23 C           4.3132    1.2512   18.6846 C.3     1  UNL1        0.0759
     24 N           3.4431    0.5409   19.6788 N.3     1  UNL1       -0.2738
     25 C           3.8971   -0.0642   20.9740 C.3     1  UNL1        0.0721
     26 C           2.7009   -0.6681   21.6480 C.3     1  UNL1        0.0187
     27 C           1.5074   -0.4361   20.7694 C.3     1  UNL1        0.0174
     28 C           1.9662    0.3111   19.5523 C.3     1  UNL1        0.0576
     29 C           1.1001    0.7512   18.4094 C.3     1  UNL1        0.0173
@<TRIPOS>BOND
     1    17    18    1
     2    18    19    1
     3    18     7    1
     4     7     8   ar
     5     8     9   ar
     6     9     1    1
     7     1     2   ar
     8     2     3   ar
     9     3     4   ar
    10     4    20    1
    11    20    21    1
    12    21    22    1
    13    22    23    1
    14    23    24    1
    15    24    25    1
    16    25    26    1
    17    26    27    1
    18    27    28    1
    19    28    29    1
    20     4     5   ar
    21     5     6   ar
    22     9    10   ar
    23    10    11   ar
    24    11    12   ar
    25    12    13   ar
    26    13    14   ar
    27    14    15   ar
    28    15    16    2
    29    15     7   ar
    30     6     1   ar
    31    14    10   ar
    32    28    24    1
@<TRIPOS>MOLECULE
*****
 29 32 0 0 0
SMALL
GASTEIGER

@<TRIPOS>ATOM
      1 C          -7.6803  -18.8001   22.8754 C.ar    1  UNL1        0.0200
      2 C          -8.4040  -20.0405   23.3086 C.ar    1  UNL1        0.0047
      3 C          -9.7491  -19.9338   23.9638 C.ar    1  UNL1        0.0369
      4 C         -10.3705  -18.5868   24.1857 C.ar    1  UNL1        0.1386
      5 C          -9.6469  -17.3464   23.7525 C.ar    1  UNL1        0.0369
      6 C          -8.3017  -17.4530   23.0973 C.ar    1  UNL1        0.0047
      7 N          -3.8605  -18.1401   22.0249 N.ar    1  UNL1       -0.2186
      8 N          -5.2056  -18.0335   22.6800 N.ar    1  UNL1       -0.1664
      9 C          -6.3352  -18.9068   22.2202 C.ar    1  UNL1        0.1071
     10 C          -6.1196  -19.8867   21.1052 C.ar    1  UNL1        0.0534
     11 S          -7.0371  -20.8714   20.4429 S.2     1  UNL1       -0.0847
     12 C          -6.2590  -21.5866   19.3785 C.ar    1  UNL1        0.0356
     13 C          -4.8606  -21.0440   19.3829 C.ar    1  UNL1        0.0123
     14 C          -4.7744  -19.9934   20.4501 C.ar    1  UNL1        0.0656
     15 C          -3.6449  -19.1201   20.9099 C.ar    1  UNL1        0.2768
     16 O          -2.2997  -19.2267   20.2548 O.2     1  UNL1       -0.2655
     17 C          -2.0878  -17.5122   23.8175 C.3     1  UNL1        0.0265
     18 C          -2.7309  -17.2668   22.4847 C.3     1  UNL1        0.1085
     19 C          -2.2444  -16.1483   21.6119 C.3     1  UNL1        0.0265
     20 O         -11.7157  -18.4802   24.8409 O.3     1  UNL1       -0.4754
     21 C         -12.9582  -18.4458   24.0015 C.3     1  UNL1        0.2068
     22 C         -13.1911  -17.3076   23.0527 C.3     1  UNL1        0.0646
     23 C         -13.2071  -17.5555   21.5734 C.3     1  UNL1        0.0759
     24 N         -11.9966  -18.1256   20.8954 N.3     1  UNL1       -0.2738
     25 C         -11.5509  -19.5571   20.9442 C.3     1  UNL1        0.0721
     26 C         -10.2981  -19.6805   20.1286 C.3     1  UNL1        0.0187
     27 C          -9.9695  -18.3254   19.5756 C.3     1  UNL1        0.0174
     28 C         -11.0193  -17.3644   20.0495 C.3     1  UNL1        0.0576
     29 C         -11.0809  -15.8995   19.7331 C.3     1  UNL1        0.0173
@<TRIPOS>BOND
     1    17    18    1
     2    18    19    1
     3    18     7    1
     4     7     8   ar
     5     8     9   ar
     6     9     1    1
     7     1     2   ar
     8     2     3   ar
     9     3     4   ar
    10     4    20    1
    11    20    21    1
    12    21    22    1
    13    22    23    1
    14    23    24    1
    15    24    25    1
    16    25    26    1
    17    26    27    1
    18    27    28    1
    19    28    29    1
    20     4     5   ar
    21     5     6   ar
    22     9    10   ar
    23    10    11   ar
    24    11    12   ar
    25    12    13   ar
    26    13    14   ar
    27    14    15   ar
    28    15    16    2
    29    15     7   ar
    30     6     1   ar
    31    14    10   ar
    32    28    24    1
@<TRIPOS>MOLECULE
*****
 29 32 0 0 0
SMALL
GASTEIGER

@<TRIPOS>ATOM
      1 C          -7.9313  -17.6797   21.6292 C.ar    1  UNL1        0.0200
      2 C          -8.5760  -18.8313   20.9164 C.ar    1  UNL1        0.0047
      3 C         -10.0322  -18.7731   20.5612 C.ar    1  UNL1        0.0369
      4 C         -10.8436  -17.5633   20.9189 C.ar    1  UNL1        0.1386
      5 C         -10.1989  -16.4117   21.6316 C.ar    1  UNL1        0.0369
      6 C          -8.7427  -16.4699   21.9868 C.ar    1  UNL1        0.0047
      7 N          -4.0713  -18.5915   21.4910 N.ar    1  UNL1       -0.2186
      8 N          -5.5274  -18.5332   21.1360 N.ar    1  UNL1       -0.1664
      9 C          -6.4751  -17.7379   21.9843 C.ar    1  UNL1        0.1071
     10 C          -5.9664  -17.0010   23.1877 C.ar    1  UNL1        0.0534
     11 S          -6.6575  -16.1416   24.2045 S.2     1  UNL1       -0.0847
     12 C          -5.6283  -15.6688   25.1880 C.ar    1  UNL1        0.0356
     13 C          -4.3012  -16.2360   24.7790 C.ar    1  UNL1        0.0123
     14 C          -4.5102  -17.0593   23.5427 C.ar    1  UNL1        0.0656
     15 C          -3.5627  -17.8546   22.6944 C.ar    1  UNL1        0.2768
     16 O          -2.1064  -17.9129   23.0495 O.2     1  UNL1       -0.2655
     17 C          -1.7656  -18.8382   20.3195 C.3     1  UNL1        0.0265
     18 C          -3.1237  -19.3868   20.6427 C.3     1  UNL1        0.1085
     19 C          -3.5341  -20.7306   20.1178 C.3     1  UNL1        0.0265
     20 O         -12.2998  -17.5051   20.5637 O.3     1  UNL1       -0.4754
     21 C         -13.3396  -17.6816   21.6302 C.3     1  UNL1        0.2068
     22 C         -13.0752  -17.1934   23.0237 C.3     1  UNL1        0.0646
     23 C         -12.7702  -18.1742   24.1168 C.3     1  UNL1        0.0759
     24 N         -11.4894  -18.9544   24.0886 N.3     1  UNL1       -0.2738
     25 C         -11.2991  -20.3152   23.4867 C.3     1  UNL1        0.0721
     26 C          -9.8661  -20.7127   23.6834 C.3     1  UNL1        0.0187
     27 C          -9.1708  -19.5976   24.4068 C.3     1  UNL1        0.0174
     28 C         -10.1741  -18.5110   24.6573 C.3     1  UNL1        0.0576
     29 C          -9.9087  -17.2094   25.3540 C.3     1  UNL1        0.0173
@<TRIPOS>BOND
     1    17    18    1
     2    18    19    1
     3    18     7    1
     4     7     8   ar
     5     8     9   ar
     6     9     1    1
     7     1     2   ar
     8     2     3   ar
     9     3     4   ar
    10     4    20    1
    11    20    21    1
    12    21    22    1
    13    22    23    1
    14    23    24    1
    15    24    25    1
    16    25    26    1
    17    26    27    1
    18    27    28    1
    19    28    29    1
    20     4     5   ar
    21     5     6   ar
    22     9    10   ar
    23    10    11   ar
    24    11    12   ar
    25    12    13   ar
    26    13    14   ar
    27    14    15   ar
    28    15    16    2
    29    15     7   ar
    30     6     1   ar
    31    14    10   ar
    32    28    24    1
@<TRIPOS>MOLECULE
*****
 29 32 0 0 0
SMALL
GASTEIGER

@<TRIPOS>ATOM
      1 C           5.1671   -0.7826   33.8190 C.ar    1  UNL1        0.0200
      2 C           4.5747   -2.1084   33.4431 C.ar    1  UNL1        0.0047
      3 C           5.4139   -3.1317   32.7368 C.ar    1  UNL1        0.0369
      4 C           6.8454   -2.8291   32.4065 C.ar    1  UNL1        0.1386
      5 C           7.4378   -1.5033   32.7824 C.ar    1  UNL1        0.0369
      6 C           6.5986   -0.4800   33.4887 C.ar    1  UNL1        0.0047
      7 N           3.5534    1.3851   36.7254 N.ar    1  UNL1       -0.2186
      8 N           4.3925    0.3619   36.0191 N.ar    1  UNL1       -0.1664
      9 C           4.3279    0.2406   34.5253 C.ar    1  UNL1        0.1071
     10 C           3.4242    1.1424   33.7380 C.ar    1  UNL1        0.0534
     11 S           3.1518    1.2548   32.2673 S.2     1  UNL1       -0.0847
     12 C           2.1443    2.3475   32.0647 C.ar    1  UNL1        0.0356
     13 C           1.7940    2.9104   33.4102 C.ar    1  UNL1        0.0123
     14 C           2.5850    2.1656   34.4444 C.ar    1  UNL1        0.0656
     15 C           2.6496    2.2869   35.9381 C.ar    1  UNL1        0.2768
     16 O           1.8105    3.3101   36.6445 O.2     1  UNL1       -0.2655
     17 C           4.7642    2.2276   38.8641 C.3     1  UNL1        0.0265
     18 C           3.6179    1.5064   38.2192 C.3     1  UNL1        0.1085
     19 C           2.5363    0.9067   39.0678 C.3     1  UNL1        0.0265
     20 O           7.6845   -3.8523   31.7002 O.3     1  UNL1       -0.4754
     21 C           7.0575   -5.1184   31.1967 C.3     1  UNL1        0.2068
     22 C           6.9895   -5.3871   29.7225 C.3     1  UNL1        0.0646
     23 C           7.8280   -6.4746   29.1189 C.3     1  UNL1        0.0759
     24 N           7.8306   -6.6827   27.6334 N.3     1  UNL1       -0.2738
     25 C           7.5299   -5.6410   26.5968 C.3     1  UNL1        0.0721
     26 C           7.6477   -6.2834   25.2464 C.3     1  UNL1        0.0187
     27 C           8.0213   -7.7221   25.4485 C.3     1  UNL1        0.0174
     28 C           8.1343   -7.9688   26.9238 C.3     1  UNL1        0.0576
     29 C           8.4888   -9.2727   27.5751 C.3     1  UNL1        0.0173
@<TRIPOS>BOND
     1    17    18    1
     2    18    19    1
     3    18     7    1
     4     7     8   ar
     5     8     9   ar
     6     9     1    1
     7     1     2   ar
     8     2     3   ar
     9     3     4   ar
    10     4    20    1
    11    20    21    1
    12    21    22    1
    13    22    23    1
    14    23    24    1
    15    24    25    1
    16    25    26    1
    17    26    27    1
    18    27    28    1
    19    28    29    1
    20     4     5   ar
    21     5     6   ar
    22     9    10   ar
    23    10    11   ar
    24    11    12   ar
    25    12    13   ar
    26    13    14   ar
    27    14    15   ar
    28    15    16    2
    29    15     7   ar
    30     6     1   ar
    31    14    10   ar
    32    28    24    1
@<TRIPOS>MOLECULE
*****
 29 32 0 0 0
SMALL
GASTEIGER

@<TRIPOS>ATOM
      1 C          -8.5934  -18.4658   23.3340 C.ar    1  UNL1        0.0200
      2 C          -9.3964  -17.1991   23.3590 C.ar    1  UNL1        0.0047
      3 C         -10.8023  -17.2126   23.8819 C.ar    1  UNL1        0.0369
      4 C         -11.4050  -18.4928   24.3797 C.ar    1  UNL1        0.1386
      5 C         -10.6019  -19.7594   24.3547 C.ar    1  UNL1        0.0369
      6 C          -9.1961  -19.7459   23.8318 C.ar    1  UNL1        0.0047
      7 N          -5.3395  -19.4755   21.2986 N.ar    1  UNL1       -0.2186
      8 N          -6.7453  -19.4891   21.8214 N.ar    1  UNL1       -0.1664
      9 C          -7.1875  -18.4522   22.8111 C.ar    1  UNL1        0.1071
     10 C          -6.2237  -17.4018   23.2779 C.ar    1  UNL1        0.0534
     11 S          -6.3718  -16.2599   24.2392 S.2     1  UNL1       -0.0847
     12 C          -5.0574  -15.5407   24.3104 C.ar    1  UNL1        0.0356
     13 C          -4.0970  -16.2380   23.3931 C.ar    1  UNL1        0.0123
     14 C          -4.8179  -17.3883   22.7550 C.ar    1  UNL1        0.0656
     15 C          -4.3758  -18.4252   21.7653 C.ar    1  UNL1        0.2768
     16 O          -2.9699  -18.4116   21.2424 O.2     1  UNL1       -0.2655
     17 C          -5.7856  -21.6809   19.9996 C.3     1  UNL1        0.0265
     18 C          -4.8974  -20.5124   20.3088 C.3     1  UNL1        0.1085
     19 C          -3.5671  -20.3807   19.6285 C.3     1  UNL1        0.0265
     20 O         -12.8109  -18.5063   24.9025 O.3     1  UNL1       -0.4754
     21 C         -13.9344  -18.0018   24.0464 C.3     1  UNL1        0.2068
     22 C         -13.9912  -18.3659   22.5923 C.3     1  UNL1        0.0646
     23 C         -13.2395  -17.5479   21.5844 C.3     1  UNL1        0.0759
     24 N         -12.0310  -18.1204   20.9049 N.3     1  UNL1       -0.2738
     25 C         -11.5579  -19.5409   20.9970 C.3     1  UNL1        0.0721
     26 C         -10.3179  -19.6714   20.1630 C.3     1  UNL1        0.0187
     27 C         -10.0246  -18.3316   19.5556 C.3     1  UNL1        0.0174
     28 C         -11.0834  -17.3730   20.0142 C.3     1  UNL1        0.0576
     29 C         -11.1779  -15.9219   19.6465 C.3     1  UNL1        0.0173
@<TRIPOS>BOND
     1    17    18    1
     2    18    19    1
     3    18     7    1
     4     7     8   ar
     5     8     9   ar
     6     9     1    1
     7     1     2   ar
     8     2     3   ar
     9     3     4   ar
    10     4    20    1
    11    20    21    1
    12    21    22    1
    13    22    23    1
    14    23    24    1
    15    24    25    1
    16    25    26    1
    17    26    27    1
    18    27    28    1
    19    28    29    1
    20     4     5   ar
    21     5     6   ar
    22     9    10   ar
    23    10    11   ar
    24    11    12   ar
    25    12    13   ar
    26    13    14   ar
    27    14    15   ar
    28    15    16    2
    29    15     7   ar
    30     6     1   ar
    31    14    10   ar
    32    28    24    1
@<TRIPOS>MOLECULE
*****
 29 32 0 0 0
SMALL
GASTEIGER

@<TRIPOS>ATOM
      1 C           5.8648   -2.9784   22.3730 C.ar    1  UNL1        0.0200
      2 C           4.6978   -3.6429   21.7048 C.ar    1  UNL1        0.0047
      3 C           4.5231   -3.5352   20.2189 C.ar    1  UNL1        0.0369
      4 C           5.5156   -2.7630   19.4012 C.ar    1  UNL1        0.1386
      5 C           6.6826   -2.0985   20.0694 C.ar    1  UNL1        0.0369
      6 C           6.8572   -2.2062   21.5553 C.ar    1  UNL1        0.0047
      7 N           5.5745   -2.1832   26.2503 N.ar    1  UNL1       -0.2186
      8 N           5.4000   -2.0755   24.7644 N.ar    1  UNL1       -0.1664
      9 C           6.0393   -3.0862   23.8589 C.ar    1  UNL1        0.1071
     10 C           6.8532   -4.2045   24.4394 C.ar    1  UNL1        0.0534
     11 S           7.5971   -5.3402   23.8018 S.2     1  UNL1       -0.0847
     12 C           8.2315   -6.1499   24.8936 C.ar    1  UNL1        0.0356
     13 C           7.8795   -5.5145   26.2061 C.ar    1  UNL1        0.0123
     14 C           7.0277   -4.3122   25.9253 C.ar    1  UNL1        0.0656
     15 C           6.3883   -3.3015   26.8308 C.ar    1  UNL1        0.2768
     16 O           6.5628   -3.4092   28.3167 O.2     1  UNL1       -0.2655
     17 C           3.4863   -1.3035   27.5213 C.3     1  UNL1        0.0265
     18 C           4.9352   -1.1725   27.1558 C.3     1  UNL1        0.1085
     19 C           5.7447   -0.0310   27.6957 C.3     1  UNL1        0.0265
     20 O           5.3409   -2.6553   17.9153 O.3     1  UNL1       -0.4754
     21 C           5.0839   -1.3186   17.2853 C.3     1  UNL1        0.2068
     22 C           3.6758   -0.8620   17.0427 C.3     1  UNL1        0.0646
     23 C           3.0577    0.1712   17.9375 C.3     1  UNL1        0.0759
     24 N           3.0813   -0.0147   19.4258 N.3     1  UNL1       -0.2738
     25 C           2.0725   -0.7741   20.2355 C.3     1  UNL1        0.0721
     26 C           2.4855   -0.7026   21.6757 C.3     1  UNL1        0.0187
     27 C           3.7495    0.1011   21.7562 C.3     1  UNL1        0.0174
     28 C           4.1178    0.5262   20.3655 C.3     1  UNL1        0.0576
     29 C           5.3126    1.3479   19.9821 C.3     1  UNL1        0.0173
@<TRIPOS>BOND
     1    17    18    1
     2    18    19    1
     3    18     7    1
     4     7     8   ar
     5     8     9   ar
     6     9     1    1
     7     1     2   ar
     8     2     3   ar
     9     3     4   ar
    10     4    20    1
    11    20    21    1
    12    21    22    1
    13    22    23    1
    14    23    24    1
    15    24    25    1
    16    25    26    1
    17    26    27    1
    18    27    28    1
    19    28    29    1
    20     4     5   ar
    21     5     6   ar
    22     9    10   ar
    23    10    11   ar
    24    11    12   ar
    25    12    13   ar
    26    13    14   ar
    27    14    15   ar
    28    15    16    2
    29    15     7   ar
    30     6     1   ar
    31    14    10   ar
    32    28    24    1
@<TRIPOS>MOLECULE
*****
 29 32 0 0 0
SMALL
GASTEIGER

@<TRIPOS>ATOM
      1 C          -7.7571  -17.4334   22.2301 C.ar    1  UNL1        0.0200
      2 C          -8.7687  -17.2679   21.1350 C.ar    1  UNL1        0.0047
      3 C         -10.0908  -16.6221   21.4266 C.ar    1  UNL1        0.0369
      4 C         -10.4013  -16.1421   22.8133 C.ar    1  UNL1        0.1386
      5 C          -9.3898  -16.3077   23.9084 C.ar    1  UNL1        0.0369
      6 C          -8.0676  -16.9534   23.6168 C.ar    1  UNL1        0.0047
      7 N          -3.8454  -18.0980   22.1475 N.ar    1  UNL1       -0.2186
      8 N          -5.1675  -17.4524   22.4391 N.ar    1  UNL1       -0.1664
      9 C          -6.4350  -18.0792   21.9384 C.ar    1  UNL1        0.1071
     10 C          -6.3803  -19.3516   21.1461 C.ar    1  UNL1        0.0534
     11 S          -7.4548  -20.1950   20.5262 S.2     1  UNL1       -0.0847
     12 C          -6.7967  -21.3618   19.8515 C.ar    1  UNL1        0.0356
     13 C          -5.3155  -21.2397   20.0543 C.ar    1  UNL1        0.0123
     14 C          -5.0581  -19.9973   20.8544 C.ar    1  UNL1        0.0656
     15 C          -3.7907  -19.3705   21.3551 C.ar    1  UNL1        0.2768
     16 O          -2.4685  -20.0161   21.0635 O.2     1  UNL1       -0.2655
     17 C          -2.0751  -17.7926   24.0244 C.3     1  UNL1        0.0265
     18 C          -2.5779  -17.4712   22.6482 C.3     1  UNL1        0.1085
     19 C          -1.8133  -16.5232   21.7728 C.3     1  UNL1        0.0265
     20 O         -11.7235  -15.4964   23.1049 O.3     1  UNL1       -0.4754
     21 C         -12.9696  -16.0076   22.4450 C.3     1  UNL1        0.2068
     22 C         -13.1853  -17.4840   22.2912 C.3     1  UNL1        0.0646
     23 C         -13.0708  -18.3869   23.4835 C.3     1  UNL1        0.0759
     24 N         -11.7732  -19.0792   23.7782 N.3     1  UNL1       -0.2738
     25 C         -11.0868  -19.1356   25.1108 C.3     1  UNL1        0.0721
     26 C          -9.8235  -19.9278   24.9483 C.3     1  UNL1        0.0187
     27 C          -9.7291  -20.3611   23.5153 C.3     1  UNL1        0.0174
     28 C         -10.9341  -19.8365   22.7922 C.3     1  UNL1        0.0576
     29 C         -11.2454  -20.0346   21.3383 C.3     1  UNL1        0.0173
@<TRIPOS>BOND
     1    17    18    1
     2    18    19    1
     3    18     7    1
     4     7     8   ar
     5     8     9   ar
     6     9     1    1
     7     1     2   ar
     8     2     3   ar
     9     3     4   ar
    10     4    20    1
    11    20    21    1
    12    21    22    1
    13    22    23    1
    14    23    24    1
    15    24    25    1
    16    25    26    1
    17    26    27    1
    18    27    28    1
    19    28    29    1
    20     4     5   ar
    21     5     6   ar
    22     9    10   ar
    23    10    11   ar
    24    11    12   ar
    25    12    13   ar
    26    13    14   ar
    27    14    15   ar
    28    15    16    2
    29    15     7   ar
    30     6     1   ar
    31    14    10   ar
    32    28    24    1
@<TRIPOS>MOLECULE
*****
 29 32 0 0 0
SMALL
GASTEIGER

@<TRIPOS>ATOM
      1 C          -7.4815  -18.7949   21.5953 C.ar    1  UNL1        0.0200
      2 C          -7.1051  -19.6935   20.4548 C.ar    1  UNL1        0.0047
      3 C          -5.6823  -20.1383   20.2884 C.ar    1  UNL1        0.0369
      4 C          -4.6359  -19.6845   21.2626 C.ar    1  UNL1        0.1386
      5 C          -5.0123  -18.7859   22.4031 C.ar    1  UNL1        0.0369
      6 C          -6.4351  -18.3411   22.5695 C.ar    1  UNL1        0.0047
      7 N         -10.9331  -16.9472   20.9456 N.ar    1  UNL1       -0.2186
      8 N          -9.5104  -17.3920   20.7793 N.ar    1  UNL1       -0.1664
      9 C          -8.9044  -18.3501   21.7616 C.ar    1  UNL1        0.1071
     10 C          -9.7213  -18.8634   22.9101 C.ar    1  UNL1        0.0534
     11 S          -9.3975  -19.8088   24.0288 S.2     1  UNL1       -0.0847
     12 C         -10.6202  -19.9483   24.8864 C.ar    1  UNL1        0.0356
     13 C         -11.6997  -19.0891   24.2978 C.ar    1  UNL1        0.0123
     14 C         -11.1442  -18.4186   23.0764 C.ar    1  UNL1        0.0656
     15 C         -11.7501  -17.4605   22.0941 C.ar    1  UNL1        0.2768
     16 O         -13.1729  -17.0157   22.2603 O.2     1  UNL1       -0.2655
     17 C         -13.0282  -15.9328   19.7916 C.3     1  UNL1        0.0265
     18 C         -11.5391  -15.9891   19.9633 C.3     1  UNL1        0.1085
     19 C         -10.6561  -15.0873   19.1528 C.3     1  UNL1        0.0265
     20 O          -3.2130  -20.1293   21.0962 O.3     1  UNL1       -0.4754
     21 C          -2.1415  -19.5611   21.9786 C.3     1  UNL1        0.2068
     22 C          -2.2639  -18.1599   22.4999 C.3     1  UNL1        0.0646
     23 C          -2.1152  -16.9962   21.5651 C.3     1  UNL1        0.0759
     24 N          -1.9853  -17.2315   20.0894 N.3     1  UNL1       -0.2738
     25 C          -3.0975  -17.1668   19.0850 C.3     1  UNL1        0.0721
     26 C          -2.5199  -17.4680   17.7338 C.3     1  UNL1        0.0187
     27 C          -1.0508  -17.7189   17.9031 C.3     1  UNL1        0.0174
     28 C          -0.7203  -17.5727   19.3590 C.3     1  UNL1        0.0576
     29 C           0.6368  -17.7386   19.9760 C.3     1  UNL1        0.0173
@<TRIPOS>BOND
     1    17    18    1
     2    18    19    1
     3    18     7    1
     4     7     8   ar
     5     8     9   ar
     6     9     1    1
     7     1     2   ar
     8     2     3   ar
     9     3     4   ar
    10     4    20    1
    11    20    21    1
    12    21    22    1
    13    22    23    1
    14    23    24    1
    15    24    25    1
    16    25    26    1
    17    26    27    1
    18    27    28    1
    19    28    29    1
    20     4     5   ar
    21     5     6   ar
    22     9    10   ar
    23    10    11   ar
    24    11    12   ar
    25    12    13   ar
    26    13    14   ar
    27    14    15   ar
    28    15    16    2
    29    15     7   ar
    30     6     1   ar
    31    14    10   ar
    32    28    24    1
