@<TRIPOS>MOLECULE
*****
 27 30 0 0 0
SMALL
GASTEIGER

@<TRIPOS>ATOM
      1 C          -6.1922  -14.7239   27.0945 C.3     1  UNL1        0.0521
      2 C          -6.9709  -15.4550   26.0413 C.ar    1  UNL1        0.0606
      3 C          -6.2657  -16.0202   24.8441 C.ar    1  UNL1        0.0294
      4 C          -7.0444  -16.7513   23.7909 C.ar    1  UNL1        0.0532
      5 C          -8.5281  -16.9173   23.9349 C.ar    1  UNL1        0.0327
      6 C          -9.2333  -16.3522   25.1322 C.ar    1  UNL1        0.0996
      7 N          -8.4547  -15.6210   26.1853 N.ar    1  UNL1       -0.2481
      8 C          -9.3068  -17.6485   22.8818 C.ar    1  UNL1        0.0035
      9 C          -9.4623  -19.1382   22.9628 C.ar    1  UNL1        0.0001
     10 C         -10.2409  -19.8693   21.9097 C.ar    1  UNL1        0.0009
     11 C         -10.8641  -19.1108   20.7755 C.ar    1  UNL1        0.0114
     12 C         -10.7086  -17.6211   20.6945 C.ar    1  UNL1        0.0577
     13 CL        -11.3317  -16.8625   19.5604 Cl      1  UNL1       -0.0822
     14 C          -9.9299  -16.8899   21.7476 C.ar    1  UNL1        0.0115
     15 N          -6.3392  -17.3165   22.5937 N.am    1  UNL1       -0.2802
     16 C          -5.0032  -17.9795   22.7539 C.2     1  UNL1        0.2541
     17 O          -4.3724  -18.0772   24.1112 O.2     1  UNL1       -0.2696
     18 H          -6.7532  -17.2523   21.7028 H       1  UNL1        0.1552
     19 C          -4.2980  -18.5447   21.5567 C.ar    1  UNL1        0.1102
     20 C          -4.7576  -19.7098   20.7313 C.ar    1  UNL1        0.1281
     21 N          -3.7531  -19.9291   19.6392 N.ar    1  UNL1       -0.1619
     22 N          -2.6726  -18.8995   19.7895 N.ar    1  UNL1       -0.2105
     23 C          -1.4256  -18.6306   19.0005 C.ar    1  UNL1        0.1037
     24 C          -0.5154  -17.5061   19.3965 C.ar    1  UNL1        0.0414
     25 C          -0.8522  -16.6504   20.5816 C.ar    1  UNL1        0.1022
     26 N          -2.0992  -16.9193   21.3707 N.ar    1  UNL1       -0.2248
     27 C          -3.0094  -18.0439   20.9746 C.ar    1  UNL1        0.1697
@<TRIPOS>BOND
     1     1     2    1
     2     2     3   ar
     3     3     4   ar
     4     4    15    1
     5    15    16   am
     6    16    17    2
     7    16    19    1
     8    19    20   ar
     9    20    21   ar
    10    21    22   ar
    11    22    23   ar
    12    23    24   ar
    13    24    25   ar
    14    25    26   ar
    15    26    27   ar
    16     4     5   ar
    17     5     8    1
    18     8     9   ar
    19     9    10   ar
    20    10    11   ar
    21    11    12   ar
    22    12    13    1
    23    12    14   ar
    24     5     6   ar
    25     6     7   ar
    26     7     2   ar
    27    27    19   ar
    28    14     8   ar
    29    27    22   ar
    30    15    18    1
@<TRIPOS>MOLECULE
*****
 27 30 0 0 0
SMALL
GASTEIGER

@<TRIPOS>ATOM
      1 C          -8.8390   -7.5746   18.9303 C.3     1  UNL1        0.0521
      2 C         -10.0388   -6.6758   18.9820 C.ar    1  UNL1        0.0606
      3 C         -11.4096   -7.2632   19.1427 C.ar    1  UNL1        0.0294
      4 C         -12.6094   -6.3644   19.1945 C.ar    1  UNL1        0.0532
      5 C         -12.4385   -4.8782   19.0855 C.ar    1  UNL1        0.0327
      6 C         -11.0676   -4.2908   18.9248 C.ar    1  UNL1        0.0996
      7 N          -9.8679   -5.1896   18.8730 N.ar    1  UNL1       -0.2481
      8 C         -13.6382   -3.9795   19.1373 C.ar    1  UNL1        0.0035
      9 C         -13.8378   -3.0615   20.3067 C.ar    1  UNL1        0.0001
     10 C         -15.0375   -2.1627   20.3584 C.ar    1  UNL1        0.0009
     11 C         -16.0378   -2.1819   19.2408 C.ar    1  UNL1        0.0114
     12 C         -15.8383   -3.0998   18.0714 C.ar    1  UNL1        0.0577
     13 CL        -16.8385   -3.1190   16.9537 Cl      1  UNL1       -0.0822
     14 C         -14.6385   -3.9986   18.0196 C.ar    1  UNL1        0.0115
     15 N         -13.9802   -6.9519   19.3552 N.am    1  UNL1       -0.2802
     16 C         -14.5168   -7.8977   18.3219 C.2     1  UNL1        0.2541
     17 O         -13.6825   -8.2560   17.1280 O.2     1  UNL1       -0.2696
     18 H         -14.5278   -6.7167   20.1389 H       1  UNL1        0.1552
     19 C         -15.8876   -8.4851   18.4826 C.ar    1  UNL1        0.1102
     20 C         -16.2695   -9.9138   18.2318 C.ar    1  UNL1        0.1281
     21 N         -17.7351  -10.0586   18.5166 N.ar    1  UNL1       -0.1619
     22 N         -18.2589   -8.7194   18.9434 N.ar    1  UNL1       -0.2105
     23 C         -19.6281   -8.2598   19.3484 C.ar    1  UNL1        0.1037
     24 C         -19.8554   -6.8278   19.7325 C.ar    1  UNL1        0.0414
     25 C         -18.7136   -5.8553   19.7115 C.ar    1  UNL1        0.1022
     26 N         -17.3444   -6.3149   19.3065 N.ar    1  UNL1       -0.2248
     27 C         -17.1171   -7.7469   18.9224 C.ar    1  UNL1        0.1697
@<TRIPOS>BOND
     1     1     2    1
     2     2     3   ar
     3     3     4   ar
     4     4    15    1
     5    15    16   am
     6    16    17    2
     7    16    19    1
     8    19    20   ar
     9    20    21   ar
    10    21    22   ar
    11    22    23   ar
    12    23    24   ar
    13    24    25   ar
    14    25    26   ar
    15    26    27   ar
    16     4     5   ar
    17     5     8    1
    18     8     9   ar
    19     9    10   ar
    20    10    11   ar
    21    11    12   ar
    22    12    13    1
    23    12    14   ar
    24     5     6   ar
    25     6     7   ar
    26     7     2   ar
    27    27    19   ar
    28    14     8   ar
    29    27    22   ar
    30    15    18    1
@<TRIPOS>MOLECULE
*****
 27 30 0 0 0
SMALL
GASTEIGER

@<TRIPOS>ATOM
      1 C          -8.9433   -7.6646   18.9810 C.3     1  UNL1        0.0521
      2 C          -9.9768   -6.5775   18.9813 C.ar    1  UNL1        0.0606
      3 C         -11.4350   -6.9289   18.9816 C.ar    1  UNL1        0.0294
      4 C         -12.4685   -5.8418   18.9818 C.ar    1  UNL1        0.0532
      5 C         -12.0439   -4.4032   18.9819 C.ar    1  UNL1        0.0327
      6 C         -10.5856   -4.0518   18.9816 C.ar    1  UNL1        0.0996
      7 N          -9.5521   -5.1389   18.9813 N.ar    1  UNL1       -0.2481
      8 C         -13.0774   -3.3161   18.9822 C.ar    1  UNL1        0.0035
      9 C         -13.8218   -2.9893   20.2427 C.ar    1  UNL1        0.0001
     10 C         -14.8553   -1.9022   20.2430 C.ar    1  UNL1        0.0009
     11 C         -15.1443   -1.1418   18.9827 C.ar    1  UNL1        0.0114
     12 C         -14.3999   -1.4685   17.7222 C.ar    1  UNL1        0.0577
     13 CL        -14.6889   -0.7082   16.4619 Cl      1  UNL1       -0.0822
     14 C         -13.3664   -2.5557   17.7219 C.ar    1  UNL1        0.0115
     15 N         -13.9268   -6.1933   18.9821 N.am    1  UNL1       -0.2802
     16 C         -14.6513   -6.3894   17.6833 C.2     1  UNL1        0.2541
     17 O         -13.9174   -6.2340   16.3844 O.2     1  UNL1       -0.2696
     18 H         -14.4084   -6.2952   19.8347 H       1  UNL1        0.1552
     19 C         -16.1095   -6.7408   17.6836 C.ar    1  UNL1        0.1102
     20 C         -17.2469   -5.7848   17.4777 C.ar    1  UNL1        0.1281
     21 N         -18.5267   -6.5632   17.5566 N.ar    1  UNL1       -0.1619
     22 N         -18.1803   -8.0002   17.8113 N.ar    1  UNL1       -0.2105
     23 C         -19.0322   -9.2230   17.9820 C.ar    1  UNL1        0.1037
     24 C         -18.3901  -10.5555   18.2310 C.ar    1  UNL1        0.0414
     25 C         -16.8962  -10.6653   18.3095 C.ar    1  UNL1        0.1022
     26 N         -16.0443   -9.4426   18.1389 N.ar    1  UNL1       -0.2248
     27 C         -16.6864   -8.1100   17.8898 C.ar    1  UNL1        0.1697
@<TRIPOS>BOND
     1     1     2    1
     2     2     3   ar
     3     3     4   ar
     4     4    15    1
     5    15    16   am
     6    16    17    2
     7    16    19    1
     8    19    20   ar
     9    20    21   ar
    10    21    22   ar
    11    22    23   ar
    12    23    24   ar
    13    24    25   ar
    14    25    26   ar
    15    26    27   ar
    16     4     5   ar
    17     5     8    1
    18     8     9   ar
    19     9    10   ar
    20    10    11   ar
    21    11    12   ar
    22    12    13    1
    23    12    14   ar
    24     5     6   ar
    25     6     7   ar
    26     7     2   ar
    27    27    19   ar
    28    14     8   ar
    29    27    22   ar
    30    15    18    1
@<TRIPOS>MOLECULE
*****
 27 30 0 0 0
SMALL
GASTEIGER

@<TRIPOS>ATOM
      1 C          -8.4663  -14.8609   27.6071 C.3     1  UNL1        0.0521
      2 C          -7.4612  -15.3029   26.5852 C.ar    1  UNL1        0.0606
      3 C          -7.9222  -15.8292   25.2584 C.ar    1  UNL1        0.0294
      4 C          -6.9171  -16.2712   24.2365 C.ar    1  UNL1        0.0532
      5 C          -5.4508  -16.1869   24.5413 C.ar    1  UNL1        0.0327
      6 C          -4.9897  -15.6605   25.8681 C.ar    1  UNL1        0.0996
      7 N          -5.9949  -15.2185   26.8900 N.ar    1  UNL1       -0.2481
      8 C          -4.4456  -16.6288   23.5195 C.ar    1  UNL1        0.0035
      9 C          -3.5452  -15.6212   22.8685 C.ar    1  UNL1        0.0001
     10 C          -2.5401  -16.0631   21.8466 C.ar    1  UNL1        0.0009
     11 C          -2.4353  -17.5128   21.4757 C.ar    1  UNL1        0.0114
     12 C          -3.3357  -18.5205   22.1267 C.ar    1  UNL1        0.0577
     13 CL         -3.2310  -19.9701   21.7558 Cl      1  UNL1       -0.0822
     14 C          -4.3409  -18.0785   23.1486 C.ar    1  UNL1        0.0115
     15 N          -7.3781  -16.7975   22.9097 N.am    1  UNL1       -0.2802
     16 C          -8.5410  -17.7427   22.8408 C.2     1  UNL1        0.2541
     17 O          -9.2426  -18.1614   24.0987 O.2     1  UNL1       -0.2696
     18 H          -6.9176  -16.5227   22.0841 H       1  UNL1        0.1552
     19 C          -9.0020  -18.2690   21.5140 C.ar    1  UNL1        0.1102
     20 C         -10.2312  -17.8346   20.7721 C.ar    1  UNL1        0.1281
     21 N         -10.3037  -18.6193   19.4957 N.ar    1  UNL1       -0.1619
     22 N          -9.1193  -19.5386   19.4489 N.ar    1  UNL1       -0.2105
     23 C          -8.6695  -20.5449   18.4315 C.ar    1  UNL1        0.1037
     24 C          -7.4152  -21.3346   18.6616 C.ar    1  UNL1        0.0414
     25 C          -6.6107  -21.1181   19.9089 C.ar    1  UNL1        0.1022
     26 N          -7.0606  -20.1119   20.9263 N.ar    1  UNL1       -0.2248
     27 C          -8.3149  -19.3221   20.6962 C.ar    1  UNL1        0.1697
@<TRIPOS>BOND
     1     1     2    1
     2     2     3   ar
     3     3     4   ar
     4     4    15    1
     5    15    16   am
     6    16    17    2
     7    16    19    1
     8    19    20   ar
     9    20    21   ar
    10    21    22   ar
    11    22    23   ar
    12    23    24   ar
    13    24    25   ar
    14    25    26   ar
    15    26    27   ar
    16     4     5   ar
    17     5     8    1
    18     8     9   ar
    19     9    10   ar
    20    10    11   ar
    21    11    12   ar
    22    12    13    1
    23    12    14   ar
    24     5     6   ar
    25     6     7   ar
    26     7     2   ar
    27    27    19   ar
    28    14     8   ar
    29    27    22   ar
    30    15    18    1
@<TRIPOS>MOLECULE
*****
 27 30 0 0 0
SMALL
GASTEIGER

@<TRIPOS>ATOM
      1 C           4.6611   -4.5079   18.7442 C.3     1  UNL1        0.0521
      2 C           4.1922   -3.0841   18.6905 C.ar    1  UNL1        0.0606
      3 C           3.3890   -2.5157   19.8227 C.ar    1  UNL1        0.0294
      4 C           2.9201   -1.0919   19.7690 C.ar    1  UNL1        0.0532
      5 C           3.2543   -0.2364   18.5831 C.ar    1  UNL1        0.0327
      6 C           4.0575   -0.8048   17.4509 C.ar    1  UNL1        0.0996
      7 N           4.5264   -2.2286   17.5046 N.ar    1  UNL1       -0.2481
      8 C           2.7854    1.1874   18.5294 C.ar    1  UNL1        0.0035
      9 C           3.7769    2.3080   18.6347 C.ar    1  UNL1        0.0001
     10 C           3.3079    3.7318   18.5810 C.ar    1  UNL1        0.0009
     11 C           1.8475    4.0350   18.4220 C.ar    1  UNL1        0.0114
     12 C           0.8560    2.9143   18.3166 C.ar    1  UNL1        0.0577
     13 CL         -0.6044    3.2175   18.1576 Cl      1  UNL1       -0.0822
     14 C           1.3250    1.4905   18.3704 C.ar    1  UNL1        0.0115
     15 N           2.1169   -0.5236   20.9012 N.am    1  UNL1       -0.2802
     16 C           2.8109    0.1333   22.0575 C.2     1  UNL1        0.2541
     17 O           4.3081    0.2218   22.0814 O.2     1  UNL1       -0.2696
     18 H           1.1342   -0.5817   20.8854 H       1  UNL1        0.1552
     19 C           2.0078    0.7016   23.1897 C.ar    1  UNL1        0.1102
     20 C           2.2296    0.4349   24.6490 C.ar    1  UNL1        0.1281
     21 N           1.2006    1.2049   25.4225 N.ar    1  UNL1       -0.1619
     22 N           0.3429    1.9475   24.4413 N.ar    1  UNL1       -0.2105
     23 C          -0.8279    2.8668   24.6261 C.ar    1  UNL1        0.1037
     24 C          -1.4998    3.4750   23.4309 C.ar    1  UNL1        0.0414
     25 C          -1.0010    3.1639   22.0509 C.ar    1  UNL1        0.1022
     26 N           0.1698    2.2447   21.8661 N.ar    1  UNL1       -0.2248
     27 C           0.8417    1.6365   23.0613 C.ar    1  UNL1        0.1697
@<TRIPOS>BOND
     1     1     2    1
     2     2     3   ar
     3     3     4   ar
     4     4    15    1
     5    15    16   am
     6    16    17    2
     7    16    19    1
     8    19    20   ar
     9    20    21   ar
    10    21    22   ar
    11    22    23   ar
    12    23    24   ar
    13    24    25   ar
    14    25    26   ar
    15    26    27   ar
    16     4     5   ar
    17     5     8    1
    18     8     9   ar
    19     9    10   ar
    20    10    11   ar
    21    11    12   ar
    22    12    13    1
    23    12    14   ar
    24     5     6   ar
    25     6     7   ar
    26     7     2   ar
    27    27    19   ar
    28    14     8   ar
    29    27    22   ar
    30    15    18    1
@<TRIPOS>MOLECULE
*****
 27 30 0 0 0
SMALL
GASTEIGER

@<TRIPOS>ATOM
      1 C           8.7204   -7.6370   24.2752 C.3     1  UNL1        0.0521
      2 C           8.0811   -6.2803   24.2984 C.ar    1  UNL1        0.0606
      3 C           8.0210   -5.4580   23.0453 C.ar    1  UNL1        0.0294
      4 C           7.3818   -4.1012   23.0685 C.ar    1  UNL1        0.0532
      5 C           6.8026   -3.5667   24.3447 C.ar    1  UNL1        0.0327
      6 C           6.8627   -4.3890   25.5978 C.ar    1  UNL1        0.0996
      7 N           7.5020   -5.7457   25.5746 N.ar    1  UNL1       -0.2481
      8 C           6.1634   -2.2099   24.3679 C.ar    1  UNL1        0.0035
      9 C           6.9733   -1.0056   24.7468 C.ar    1  UNL1        0.0001
     10 C           6.3340    0.3511   24.7700 C.ar    1  UNL1        0.0009
     11 C           4.8848    0.5036   24.4143 C.ar    1  UNL1        0.0114
     12 C           4.0749   -0.7007   24.0353 C.ar    1  UNL1        0.0577
     13 CL          2.6257   -0.5483   23.6796 Cl      1  UNL1       -0.0822
     14 C           4.7141   -2.0575   24.0121 C.ar    1  UNL1        0.0115
     15 N           7.3217   -3.2789   21.8154 N.am    1  UNL1       -0.2802
     16 C           6.1543   -3.4164   20.8833 C.2     1  UNL1        0.2541
     17 O           5.0473   -4.3762   21.2045 O.2     1  UNL1       -0.2696
     18 H           8.0483   -2.6490   21.6046 H       1  UNL1        0.1552
     19 C           6.0942   -2.5941   19.6302 C.ar    1  UNL1        0.1102
     20 C           7.1658   -2.5007   18.5848 C.ar    1  UNL1        0.1281
     21 N           6.6858   -1.5697   17.5110 N.ar    1  UNL1       -0.1619
     22 N           5.3176   -1.0878   17.8929 N.ar    1  UNL1       -0.2105
     23 C           4.3574   -0.1543   17.2172 C.ar    1  UNL1        0.1037
     24 C           3.0316    0.1461   17.8513 C.ar    1  UNL1        0.0414
     25 C           2.6661   -0.4870   19.1611 C.ar    1  UNL1        0.1022
     26 N           3.6262   -1.4206   19.8368 N.ar    1  UNL1       -0.2248
     27 C           4.9520   -1.7209   19.2027 C.ar    1  UNL1        0.1697
@<TRIPOS>BOND
     1     1     2    1
     2     2     3   ar
     3     3     4   ar
     4     4    15    1
     5    15    16   am
     6    16    17    2
     7    16    19    1
     8    19    20   ar
     9    20    21   ar
    10    21    22   ar
    11    22    23   ar
    12    23    24   ar
    13    24    25   ar
    14    25    26   ar
    15    26    27   ar
    16     4     5   ar
    17     5     8    1
    18     8     9   ar
    19     9    10   ar
    20    10    11   ar
    21    11    12   ar
    22    12    13    1
    23    12    14   ar
    24     5     6   ar
    25     6     7   ar
    26     7     2   ar
    27    27    19   ar
    28    14     8   ar
    29    27    22   ar
    30    15    18    1
@<TRIPOS>MOLECULE
*****
 27 30 0 0 0
SMALL
GASTEIGER

@<TRIPOS>ATOM
      1 C           4.9611   -4.4536   18.8730 C.3     1  UNL1        0.0521
      2 C           4.3484   -3.0874   18.7824 C.ar    1  UNL1        0.0606
      3 C           3.5219   -2.5593   19.9173 C.ar    1  UNL1        0.0294
      4 C           2.9093   -1.1931   19.8267 C.ar    1  UNL1        0.0532
      5 C           3.1230   -0.3550   18.6013 C.ar    1  UNL1        0.0327
      6 C           3.9495   -0.8831   17.4664 C.ar    1  UNL1        0.0996
      7 N           4.5622   -2.2493   17.5570 N.ar    1  UNL1       -0.2481
      8 C           2.5103    1.0111   18.5107 C.ar    1  UNL1        0.0035
      9 C           1.0256    1.1585   18.3567 C.ar    1  UNL1        0.0001
     10 C           0.4129    2.5246   18.2661 C.ar    1  UNL1        0.0009
     11 C           1.2850    3.7434   18.3295 C.ar    1  UNL1        0.0114
     12 C           2.7697    3.5961   18.4834 C.ar    1  UNL1        0.0577
     13 CL          3.6418    4.8149   18.5468 Cl      1  UNL1       -0.0822
     14 C           3.3824    2.2299   18.5740 C.ar    1  UNL1        0.0115
     15 N           2.0827   -0.6651   20.9616 N.am    1  UNL1       -0.2802
     16 C           2.7222    0.1739   22.0282 C.2     1  UNL1        0.2541
     17 O           4.1879    0.4846   21.9598 O.2     1  UNL1       -0.2696
     18 H           1.1207   -0.8690   21.0065 H       1  UNL1        0.1552
     19 C           1.8956    0.7020   23.1631 C.ar    1  UNL1        0.1102
     20 C           0.6271    1.4924   23.0368 C.ar    1  UNL1        0.1281
     21 N           0.1401    1.8113   24.4192 N.ar    1  UNL1       -0.1619
     22 N           1.1076    1.2179   25.4000 N.ar    1  UNL1       -0.2105
     23 C           1.1408    1.2132   26.8996 C.ar    1  UNL1        0.1037
     24 C           2.2590    0.5230   27.6228 C.ar    1  UNL1        0.0414
     25 C           3.3440   -0.1626   26.8465 C.ar    1  UNL1        0.1022
     26 N           3.3108   -0.1580   25.3469 N.ar    1  UNL1       -0.2248
     27 C           2.1926    0.5323   24.6236 C.ar    1  UNL1        0.1697
@<TRIPOS>BOND
     1     1     2    1
     2     2     3   ar
     3     3     4   ar
     4     4    15    1
     5    15    16   am
     6    16    17    2
     7    16    19    1
     8    19    20   ar
     9    20    21   ar
    10    21    22   ar
    11    22    23   ar
    12    23    24   ar
    13    24    25   ar
    14    25    26   ar
    15    26    27   ar
    16     4     5   ar
    17     5     8    1
    18     8     9   ar
    19     9    10   ar
    20    10    11   ar
    21    11    12   ar
    22    12    13    1
    23    12    14   ar
    24     5     6   ar
    25     6     7   ar
    26     7     2   ar
    27    27    19   ar
    28    14     8   ar
    29    27    22   ar
    30    15    18    1
@<TRIPOS>MOLECULE
*****
 27 30 0 0 0
SMALL
GASTEIGER

@<TRIPOS>ATOM
      1 C          -0.9586    2.5083   20.7309 C.3     1  UNL1        0.0521
      2 C           0.1780    1.6031   20.3585 C.ar    1  UNL1        0.0606
      3 C           0.8671    0.7910   21.4148 C.ar    1  UNL1        0.0294
      4 C           2.0037   -0.1142   21.0424 C.ar    1  UNL1        0.0532
      5 C           2.4514   -0.2073   19.6138 C.ar    1  UNL1        0.0327
      6 C           1.7623    0.6048   18.5576 C.ar    1  UNL1        0.0996
      7 N           0.6257    1.5100   18.9300 N.ar    1  UNL1       -0.2481
      8 C           3.5880   -1.1125   19.2414 C.ar    1  UNL1        0.0035
      9 C           4.9230   -0.5309   18.8816 C.ar    1  UNL1        0.0001
     10 C           6.0596   -1.4361   18.5092 C.ar    1  UNL1        0.0009
     11 C           5.8612   -2.9229   18.4966 C.ar    1  UNL1        0.0114
     12 C           4.5262   -3.5045   18.8565 C.ar    1  UNL1        0.0577
     13 CL          4.3279   -4.9913   18.8439 Cl      1  UNL1       -0.0822
     14 C           3.3896   -2.5993   19.2289 C.ar    1  UNL1        0.0115
     15 N           2.6928   -0.9264   22.0986 N.am    1  UNL1       -0.2802
     16 C           3.8812   -0.3641   22.8209 C.2     1  UNL1        0.2541
     17 O           4.3804    1.0103   22.4868 O.2     1  UNL1       -0.2696
     18 H           2.3650   -1.8285   22.3178 H       1  UNL1        0.1552
     19 C           4.5702   -1.1762   23.8771 C.ar    1  UNL1        0.1102
     20 C           4.4517   -0.9777   25.3592 C.ar    1  UNL1        0.1281
     21 N           5.3070   -2.0083   26.0347 N.ar    1  UNL1       -0.1619
     22 N           5.9541   -2.8437   24.9701 N.ar    1  UNL1       -0.2105
     23 C           6.8992   -4.0063   25.0427 C.ar    1  UNL1        0.1037
     24 C           7.3889   -4.6545   23.7819 C.ar    1  UNL1        0.0414
     25 C           6.9336   -4.1403   22.4484 C.ar    1  UNL1        0.1022
     26 N           5.9885   -2.9777   22.3758 N.ar    1  UNL1       -0.2248
     27 C           5.4988   -2.3295   23.6367 C.ar    1  UNL1        0.1697
@<TRIPOS>BOND
     1     1     2    1
     2     2     3   ar
     3     3     4   ar
     4     4    15    1
     5    15    16   am
     6    16    17    2
     7    16    19    1
     8    19    20   ar
     9    20    21   ar
    10    21    22   ar
    11    22    23   ar
    12    23    24   ar
    13    24    25   ar
    14    25    26   ar
    15    26    27   ar
    16     4     5   ar
    17     5     8    1
    18     8     9   ar
    19     9    10   ar
    20    10    11   ar
    21    11    12   ar
    22    12    13    1
    23    12    14   ar
    24     5     6   ar
    25     6     7   ar
    26     7     2   ar
    27    27    19   ar
    28    14     8   ar
    29    27    22   ar
    30    15    18    1
@<TRIPOS>MOLECULE
*****
 27 30 0 0 0
SMALL
GASTEIGER

@<TRIPOS>ATOM
      1 C           7.2779   -3.1609   29.1587 C.3     1  UNL1        0.0521
      2 C           6.0409   -2.3292   28.9916 C.ar    1  UNL1        0.0606
      3 C           5.3510   -2.2699   27.6610 C.ar    1  UNL1        0.0294
      4 C           4.1140   -1.4382   27.4938 C.ar    1  UNL1        0.0532
      5 C           3.5667   -0.6657   28.6573 C.ar    1  UNL1        0.0327
      6 C           4.2566   -0.7249   29.9880 C.ar    1  UNL1        0.0996
      7 N           5.4936   -1.5567   30.1551 N.ar    1  UNL1       -0.2481
      8 C           2.3297    0.1660   28.4902 C.ar    1  UNL1        0.0035
      9 C           2.4343    1.5703   27.9734 C.ar    1  UNL1        0.0001
     10 C           1.1972    2.4020   27.8062 C.ar    1  UNL1        0.0009
     11 C          -0.1444    1.8295   28.1559 C.ar    1  UNL1        0.0114
     12 C          -0.2490    0.4252   28.6727 C.ar    1  UNL1        0.0577
     13 CL         -1.5906   -0.1473   29.0224 Cl      1  UNL1       -0.0822
     14 C           0.9881   -0.4065   28.8399 C.ar    1  UNL1        0.0115
     15 N           3.4242   -1.3789   26.1632 N.am    1  UNL1       -0.2802
     16 C           3.8643   -0.3803   25.1340 C.2     1  UNL1        0.2541
     17 O           4.9942    0.5590   25.4356 O.2     1  UNL1       -0.2696
     18 H           2.6826   -1.9955   25.9653 H       1  UNL1        0.1552
     19 C           3.1745   -0.3210   23.8033 C.ar    1  UNL1        0.1102
     20 C           2.0801    0.6301   23.4192 C.ar    1  UNL1        0.1281
     21 N           1.6872    0.3364   22.0017 N.ar    1  UNL1       -0.1619
     22 N           2.5388   -0.7962   21.5098 N.ar    1  UNL1       -0.2105
     23 C           2.5959   -1.5101   20.1918 C.ar    1  UNL1        0.1037
     24 C           3.5723   -2.6303   19.9873 C.ar    1  UNL1        0.0414
     25 C           4.4915   -3.0366   21.1009 C.ar    1  UNL1        0.1022
     26 N           4.4343   -2.3227   22.4188 N.ar    1  UNL1       -0.2248
     27 C           3.4580   -1.2026   22.6233 C.ar    1  UNL1        0.1697
@<TRIPOS>BOND
     1     1     2    1
     2     2     3   ar
     3     3     4   ar
     4     4    15    1
     5    15    16   am
     6    16    17    2
     7    16    19    1
     8    19    20   ar
     9    20    21   ar
    10    21    22   ar
    11    22    23   ar
    12    23    24   ar
    13    24    25   ar
    14    25    26   ar
    15    26    27   ar
    16     4     5   ar
    17     5     8    1
    18     8     9   ar
    19     9    10   ar
    20    10    11   ar
    21    11    12   ar
    22    12    13    1
    23    12    14   ar
    24     5     6   ar
    25     6     7   ar
    26     7     2   ar
    27    27    19   ar
    28    14     8   ar
    29    27    22   ar
    30    15    18    1
