@<TRIPOS>MOLECULE
*****
 27 29 0 0 0
SMALL
GASTEIGER

@<TRIPOS>ATOM
      1 C         -10.4099  -19.1391   21.5403 C.ar    1  UNL1        0.0277
      2 C          -9.4688  -18.8510   20.4084 C.ar    1  UNL1        0.0014
      3 C          -7.9958  -19.0746   20.5822 C.ar    1  UNL1        0.0145
      4 C          -7.4638  -19.5863   21.8880 C.ar    1  UNL1        0.0513
      5 C          -8.4049  -19.8744   23.0201 C.ar    1  UNL1        0.0509
      6 C          -9.8779  -19.6508   22.8462 C.ar    1  UNL1        0.1322
      7 O         -10.8190  -19.9389   23.9781 O.3     1  UNL1       -0.5057
      8 H         -10.4868  -20.2586   24.7938 H       1  UNL1        0.2922
      9 N          -5.9908  -19.8099   22.0619 N.pl3   1  UNL1       -0.3124
     10 H          -5.6180  -20.7177   21.9829 H       1  UNL1        0.1522
     11 C          -5.0858  -18.6504   22.3562 C.ar    1  UNL1        0.0513
     12 C          -5.4934  -17.6180   23.3650 C.ar    1  UNL1        0.0353
     13 C          -4.5884  -16.4585   23.6592 C.ar    1  UNL1        0.1001
     14 N          -3.2758  -16.3315   22.9445 N.ar    1  UNL1       -0.2437
     15 C          -2.8681  -17.3639   21.9357 C.ar    1  UNL1        0.0833
     16 C          -1.5554  -17.2369   21.2210 C.ar    1  UNL1        0.0305
     17 C          -1.1478  -18.2693   20.2121 C.ar    1  UNL1        0.0592
     18 CL          0.1649  -18.1423   19.4974 Cl      1  UNL1       -0.0822
     19 C          -2.0528  -19.4289   19.9179 C.ar    1  UNL1        0.0115
     20 C          -3.3655  -19.5559   20.6326 C.ar    1  UNL1        0.0036
     21 C          -3.7731  -18.5234   21.6415 C.ar    1  UNL1        0.0312
     22 C         -11.8829  -18.9155   21.3664 C.3     1  UNL1        0.1022
     23 N         -12.4701  -17.5581   21.6168 N.3     1  UNL1       -0.2689
     24 C         -13.7449  -18.0431   23.8280 C.3     1  UNL1        0.0188
     25 C         -12.8579  -17.1537   23.0082 C.3     1  UNL1        0.0724
     26 C         -12.6696  -16.6051   20.4756 C.3     1  UNL1        0.0724
     27 C         -11.4846  -15.9526   19.8276 C.3     1  UNL1        0.0188
@<TRIPOS>BOND
     1    24    25    1
     2    25    23    1
     3    23    26    1
     4    26    27    1
     5    23    22    1
     6    22     1    1
     7     1     2   ar
     8     2     3   ar
     9     3     4   ar
    10     4     9    1
    11     9    11    1
    12    11    12   ar
    13    12    13   ar
    14    13    14   ar
    15    14    15   ar
    16    15    16   ar
    17    16    17   ar
    18    17    18    1
    19    17    19   ar
    20    19    20   ar
    21    20    21   ar
    22     4     5   ar
    23     5     6   ar
    24     6     7    1
    25     6     1   ar
    26    21    11   ar
    27    21    15   ar
    28     9    10    1
    29     7     8    1
@<TRIPOS>MOLECULE
*****
 27 29 0 0 0
SMALL
GASTEIGER

@<TRIPOS>ATOM
      1 C         -10.2318  -16.5036   23.0870 C.ar    1  UNL1        0.0277
      2 C          -9.6224  -17.2655   24.2264 C.ar    1  UNL1        0.0014
      3 C          -8.1447  -17.5217   24.2521 C.ar    1  UNL1        0.0145
      4 C          -7.2763  -17.0160   23.1386 C.ar    1  UNL1        0.0513
      5 C          -7.8856  -16.2541   21.9991 C.ar    1  UNL1        0.0509
      6 C          -9.3634  -15.9979   21.9733 C.ar    1  UNL1        0.1322
      7 O          -9.9727  -15.2360   20.8340 O.3     1  UNL1       -0.5057
      8 H          -9.4303  -14.9201   20.1383 H       1  UNL1        0.2922
      9 N          -5.7986  -17.2722   23.1643 N.pl3   1  UNL1       -0.3124
     10 H          -5.2232  -16.7726   23.7876 H       1  UNL1        0.1522
     11 C          -5.1976  -18.2897   22.2403 C.ar    1  UNL1        0.0513
     12 C          -5.9777  -19.5141   21.8636 C.ar    1  UNL1        0.0353
     13 C          -5.3767  -20.5315   20.9397 C.ar    1  UNL1        0.1001
     14 N          -3.9955  -20.3244   20.3924 N.ar    1  UNL1       -0.2437
     15 C          -3.2154  -19.0999   20.7691 C.ar    1  UNL1        0.0833
     16 C          -1.8342  -18.8928   20.2219 C.ar    1  UNL1        0.0305
     17 C          -1.0541  -17.6683   20.5986 C.ar    1  UNL1        0.0592
     18 CL          0.3271  -17.4611   20.0514 Cl      1  UNL1       -0.0822
     19 C          -1.6551  -16.6508   21.5226 C.ar    1  UNL1        0.0115
     20 C          -3.0362  -16.8580   22.0698 C.ar    1  UNL1        0.0036
     21 C          -3.8164  -18.0825   21.6931 C.ar    1  UNL1        0.0312
     22 C         -11.7095  -16.2474   23.0613 C.3     1  UNL1        0.1022
     23 N         -12.6515  -17.3326   22.6312 N.3     1  UNL1       -0.2689
     24 C         -11.4840  -18.9578   20.9741 C.3     1  UNL1        0.0188
     25 C         -12.5352  -17.9262   21.2585 C.3     1  UNL1        0.0724
     26 C         -13.7098  -17.8242   23.5737 C.3     1  UNL1        0.0724
     27 C         -13.3190  -18.5370   24.8343 C.3     1  UNL1        0.0188
@<TRIPOS>BOND
     1    24    25    1
     2    25    23    1
     3    23    26    1
     4    26    27    1
     5    23    22    1
     6    22     1    1
     7     1     2   ar
     8     2     3   ar
     9     3     4   ar
    10     4     9    1
    11     9    11    1
    12    11    12   ar
    13    12    13   ar
    14    13    14   ar
    15    14    15   ar
    16    15    16   ar
    17    16    17   ar
    18    17    18    1
    19    17    19   ar
    20    19    20   ar
    21    20    21   ar
    22     4     5   ar
    23     5     6   ar
    24     6     7    1
    25     6     1   ar
    26    21    11   ar
    27    21    15   ar
    28     9    10    1
    29     7     8    1
@<TRIPOS>MOLECULE
*****
 27 29 0 0 0
SMALL
GASTEIGER

@<TRIPOS>ATOM
      1 C          -9.8055  -16.9148   22.8129 C.ar    1  UNL1        0.0277
      2 C          -8.7253  -15.8763   22.8804 C.ar    1  UNL1        0.0014
      3 C          -7.2867  -16.2943   22.9569 C.ar    1  UNL1        0.0145
      4 C          -6.9284  -17.7508   22.9661 C.ar    1  UNL1        0.0513
      5 C          -8.0087  -18.7894   22.8987 C.ar    1  UNL1        0.0509
      6 C          -9.4472  -18.3714   22.8221 C.ar    1  UNL1        0.1322
      7 O         -10.5274  -19.4099   22.7547 O.3     1  UNL1       -0.5057
      8 H         -10.3036  -20.3197   22.7604 H       1  UNL1        0.2922
      9 N          -5.4899  -18.1688   23.0427 N.pl3   1  UNL1       -0.3124
     10 H          -4.9685  -17.9914   23.8587 H       1  UNL1        0.1522
     11 C          -4.8457  -18.8572   21.8759 C.ar    1  UNL1        0.0513
     12 C          -5.5341  -20.0140   21.2141 C.ar    1  UNL1        0.0353
     13 C          -4.8899  -20.7023   20.0474 C.ar    1  UNL1        0.1001
     14 N          -3.5575  -20.2337   19.5424 N.ar    1  UNL1       -0.2437
     15 C          -2.8691  -19.0769   20.2042 C.ar    1  UNL1        0.0833
     16 C          -1.5367  -18.6084   19.6992 C.ar    1  UNL1        0.0305
     17 C          -0.8483  -17.4516   20.3609 C.ar    1  UNL1        0.0592
     18 CL          0.4841  -16.9831   19.8560 Cl      1  UNL1       -0.0822
     19 C          -1.4925  -16.7632   21.5277 C.ar    1  UNL1        0.0115
     20 C          -2.8249  -17.2318   22.0327 C.ar    1  UNL1        0.0036
     21 C          -3.5133  -18.3887   21.3709 C.ar    1  UNL1        0.0312
     22 C         -11.2440  -16.4967   22.7364 C.3     1  UNL1        0.1022
     23 N         -12.1690  -17.1667   21.7640 N.3     1  UNL1       -0.2689
     24 C         -13.6741  -17.9554   23.7295 C.3     1  UNL1        0.0188
     25 C         -13.4178  -17.8362   22.2563 C.3     1  UNL1        0.0724
     26 C         -11.8452  -17.1673   20.2993 C.3     1  UNL1        0.0724
     27 C         -11.5439  -15.8765   19.5973 C.3     1  UNL1        0.0188
@<TRIPOS>BOND
     1    24    25    1
     2    25    23    1
     3    23    26    1
     4    26    27    1
     5    23    22    1
     6    22     1    1
     7     1     2   ar
     8     2     3   ar
     9     3     4   ar
    10     4     9    1
    11     9    11    1
    12    11    12   ar
    13    12    13   ar
    14    13    14   ar
    15    14    15   ar
    16    15    16   ar
    17    16    17   ar
    18    17    18    1
    19    17    19   ar
    20    19    20   ar
    21    20    21   ar
    22     4     5   ar
    23     5     6   ar
    24     6     7    1
    25     6     1   ar
    26    21    11   ar
    27    21    15   ar
    28     9    10    1
    29     7     8    1
@<TRIPOS>MOLECULE
*****
 27 29 0 0 0
SMALL
GASTEIGER

@<TRIPOS>ATOM
      1 C           7.0849   -4.0478   22.8891 C.ar    1  UNL1        0.0277
      2 C           7.3871   -4.2323   21.4316 C.ar    1  UNL1        0.0014
      3 C           6.3298   -3.9523   20.4051 C.ar    1  UNL1        0.0145
      4 C           4.9702   -3.4879   20.8362 C.ar    1  UNL1        0.0513
      5 C           4.6679   -3.3034   22.2938 C.ar    1  UNL1        0.0509
      6 C           5.7252   -3.5834   23.3203 C.ar    1  UNL1        0.1322
      7 O           5.4230   -3.3989   24.7779 O.3     1  UNL1       -0.5057
      8 H           4.5737   -3.1088   25.0472 H       1  UNL1        0.2922
      9 N           3.9129   -3.2080   19.8097 N.pl3   1  UNL1       -0.3124
     10 H           3.1988   -3.8658   19.6465 H       1  UNL1        0.1522
     11 C           3.9435   -1.9258   19.0317 C.ar    1  UNL1        0.0513
     12 C           5.0284   -1.6857   18.0241 C.ar    1  UNL1        0.0353
     13 C           5.0590   -0.4035   17.2462 C.ar    1  UNL1        0.1001
     14 N           4.0048    0.6385   17.4761 N.ar    1  UNL1       -0.2437
     15 C           2.9200    0.3984   18.4837 C.ar    1  UNL1        0.0833
     16 C           1.8658    1.4404   18.7136 C.ar    1  UNL1        0.0305
     17 C           0.7809    1.2003   19.7212 C.ar    1  UNL1        0.0592
     18 CL         -0.2733    2.2423   19.9511 Cl      1  UNL1       -0.0822
     19 C           0.7503   -0.0819   20.4992 C.ar    1  UNL1        0.0115
     20 C           1.8045   -1.1240   20.2693 C.ar    1  UNL1        0.0036
     21 C           2.8893   -0.8838   19.2616 C.ar    1  UNL1        0.0312
     22 C           8.1422   -4.3277   23.9156 C.3     1  UNL1        0.1022
     23 N           8.0056   -5.5087   24.8302 N.3     1  UNL1       -0.2689
     24 C           6.6863   -5.8437   27.0432 C.3     1  UNL1        0.0188
     25 C           7.8769   -5.3004   26.3101 C.3     1  UNL1        0.0724
     26 C           7.9978   -6.8982   24.2649 C.3     1  UNL1        0.0724
     27 C           9.0690   -7.3233   23.3049 C.3     1  UNL1        0.0188
@<TRIPOS>BOND
     1    24    25    1
     2    25    23    1
     3    23    26    1
     4    26    27    1
     5    23    22    1
     6    22     1    1
     7     1     2   ar
     8     2     3   ar
     9     3     4   ar
    10     4     9    1
    11     9    11    1
    12    11    12   ar
    13    12    13   ar
    14    13    14   ar
    15    14    15   ar
    16    15    16   ar
    17    16    17   ar
    18    17    18    1
    19    17    19   ar
    20    19    20   ar
    21    20    21   ar
    22     4     5   ar
    23     5     6   ar
    24     6     7    1
    25     6     1   ar
    26    21    11   ar
    27    21    15   ar
    28     9    10    1
    29     7     8    1
@<TRIPOS>MOLECULE
*****
 27 29 0 0 0
SMALL
GASTEIGER

@<TRIPOS>ATOM
      1 C           2.4923   -0.4404   20.5308 C.ar    1  UNL1        0.0277
      2 C           1.0164   -0.5400   20.2825 C.ar    1  UNL1        0.0014
      3 C           0.1801    0.7038   20.2232 C.ar    1  UNL1        0.0145
      4 C           0.8198    2.0473   20.4123 C.ar    1  UNL1        0.0513
      5 C           2.2958    2.1470   20.6606 C.ar    1  UNL1        0.0509
      6 C           3.1320    0.9031   20.7198 C.ar    1  UNL1        0.1322
      7 O           4.6080    1.0027   20.9681 O.3     1  UNL1       -0.5057
      8 H           5.0076    1.8420   21.0862 H       1  UNL1        0.2922
      9 N          -0.0164    3.2912   20.3531 N.pl3   1  UNL1       -0.3124
     10 H          -0.0741    3.8834   21.1374 H       1  UNL1        0.1522
     11 C          -0.7648    3.6328   19.0987 C.ar    1  UNL1        0.0513
     12 C          -0.0132    3.9753   17.8466 C.ar    1  UNL1        0.0353
     13 C          -0.7617    4.3168   16.5924 C.ar    1  UNL1        0.1001
     14 N          -2.2617    4.3158   16.5902 N.ar    1  UNL1       -0.2437
     15 C          -3.0132    3.9733   17.8423 C.ar    1  UNL1        0.0833
     16 C          -4.5132    3.9724   17.8402 C.ar    1  UNL1        0.0305
     17 C          -5.2648    3.6299   19.0923 C.ar    1  UNL1        0.0592
     18 CL         -6.7648    3.6289   19.0901 Cl      1  UNL1       -0.0822
     19 C          -4.5164    3.2883   20.3466 C.ar    1  UNL1        0.0115
     20 C          -3.0164    3.2893   20.3488 C.ar    1  UNL1        0.0036
     21 C          -2.2648    3.6318   19.0966 C.ar    1  UNL1        0.0312
     22 C           3.3285   -1.6843   20.5900 C.3     1  UNL1        0.1022
     23 N           3.7595   -2.3594   19.3218 N.3     1  UNL1       -0.2689
     24 C           4.5104   -4.8014   18.8498 C.3     1  UNL1        0.0188
     25 C           3.4180   -3.8008   19.0859 C.3     1  UNL1        0.0724
     26 C           4.5320   -1.5930   18.2893 C.3     1  UNL1        0.0724
     27 C           3.8187   -0.9809   17.1203 C.3     1  UNL1        0.0188
@<TRIPOS>BOND
     1    24    25    1
     2    25    23    1
     3    23    26    1
     4    26    27    1
     5    23    22    1
     6    22     1    1
     7     1     2   ar
     8     2     3   ar
     9     3     4   ar
    10     4     9    1
    11     9    11    1
    12    11    12   ar
    13    12    13   ar
    14    13    14   ar
    15    14    15   ar
    16    15    16   ar
    17    16    17   ar
    18    17    18    1
    19    17    19   ar
    20    19    20   ar
    21    20    21   ar
    22     4     5   ar
    23     5     6   ar
    24     6     7    1
    25     6     1   ar
    26    21    11   ar
    27    21    15   ar
    28     9    10    1
    29     7     8    1
@<TRIPOS>MOLECULE
*****
 27 29 0 0 0
SMALL
GASTEIGER

@<TRIPOS>ATOM
      1 C           6.7390   -3.3729   24.7273 C.ar    1  UNL1        0.0277
      2 C           7.4037   -4.0583   23.5705 C.ar    1  UNL1        0.0014
      3 C           6.6832   -4.1889   22.2613 C.ar    1  UNL1        0.0145
      4 C           5.2980   -3.6342   22.1090 C.ar    1  UNL1        0.0513
      5 C           4.6332   -2.9487   23.2659 C.ar    1  UNL1        0.0509
      6 C           5.3537   -2.8180   24.5750 C.ar    1  UNL1        0.1322
      7 O           4.6889   -2.1326   25.7318 O.3     1  UNL1       -0.5057
      8 H           3.8236   -1.7861   25.6367 H       1  UNL1        0.2922
      9 N           4.5775   -3.7648   20.7999 N.pl3   1  UNL1       -0.3124
     10 H           3.9195   -4.4856   20.6699 H       1  UNL1        0.1522
     11 C           4.8594   -2.7973   19.6888 C.ar    1  UNL1        0.0513
     12 C           6.1395   -2.8980   18.9134 C.ar    1  UNL1        0.0353
     13 C           6.4214   -1.9305   17.8024 C.ar    1  UNL1        0.1001
     14 N           5.4232   -0.8623   17.4667 N.ar    1  UNL1       -0.2437
     15 C           4.1431   -0.7616   18.2421 C.ar    1  UNL1        0.0833
     16 C           3.1450    0.3065   17.9064 C.ar    1  UNL1        0.0305
     17 C           1.8649    0.4072   18.6818 C.ar    1  UNL1        0.0592
     18 CL          0.8667    1.4754   18.3461 Cl      1  UNL1       -0.0822
     19 C           1.5829   -0.5603   19.7929 C.ar    1  UNL1        0.0115
     20 C           2.5811   -1.6285   20.1286 C.ar    1  UNL1        0.0036
     21 C           3.8613   -1.7291   19.3531 C.ar    1  UNL1        0.0312
     22 C           7.4595   -3.2422   26.0364 C.3     1  UNL1        0.1022
     23 N           6.9171   -3.9165   27.2616 N.3     1  UNL1       -0.2689
     24 C           7.4803   -6.3996   26.7448 C.3     1  UNL1        0.0188
     25 C           6.5041   -5.3574   27.2039 C.3     1  UNL1        0.0724
     26 C           6.7878   -3.1499   28.5445 C.3     1  UNL1        0.0724
     27 C           6.7709   -3.8789   29.8553 C.3     1  UNL1        0.0188
@<TRIPOS>BOND
     1    24    25    1
     2    25    23    1
     3    23    26    1
     4    26    27    1
     5    23    22    1
     6    22     1    1
     7     1     2   ar
     8     2     3   ar
     9     3     4   ar
    10     4     9    1
    11     9    11    1
    12    11    12   ar
    13    12    13   ar
    14    13    14   ar
    15    14    15   ar
    16    15    16   ar
    17    16    17   ar
    18    17    18    1
    19    17    19   ar
    20    19    20   ar
    21    20    21   ar
    22     4     5   ar
    23     5     6   ar
    24     6     7    1
    25     6     1   ar
    26    21    11   ar
    27    21    15   ar
    28     9    10    1
    29     7     8    1
@<TRIPOS>MOLECULE
*****
 27 29 0 0 0
SMALL
GASTEIGER

@<TRIPOS>ATOM
      1 C           7.6721   -2.9802   32.0430 C.ar    1  UNL1        0.0277
      2 C           7.7827   -1.4853   31.9893 C.ar    1  UNL1        0.0014
      3 C           6.6175   -0.6320   32.3948 C.ar    1  UNL1        0.0145
      4 C           5.3419   -1.2736   32.8540 C.ar    1  UNL1        0.0513
      5 C           5.2312   -2.7686   32.9076 C.ar    1  UNL1        0.0509
      6 C           6.3963   -3.6219   32.5022 C.ar    1  UNL1        0.1322
      7 O           6.2858   -5.1168   32.5558 O.3     1  UNL1       -0.5057
      8 H           5.4889   -5.5177   32.8426 H       1  UNL1        0.2922
      9 N           4.1767   -0.4203   33.2594 N.pl3   1  UNL1       -0.3124
     10 H           4.0667   -0.1523   34.2003 H       1  UNL1        0.1522
     11 C           3.1792    0.0245   32.2313 C.ar    1  UNL1        0.0513
     12 C           2.9744   -0.7852   30.9853 C.ar    1  UNL1        0.0353
     13 C           1.9769   -0.3403   29.9573 C.ar    1  UNL1        0.1001
     14 N           1.1842    0.9144   30.1751 N.ar    1  UNL1       -0.2437
     15 C           1.3889    1.7241   31.4211 C.ar    1  UNL1        0.0833
     16 C           0.5962    2.9787   31.6389 C.ar    1  UNL1        0.0305
     17 C           0.8009    3.7884   32.8848 C.ar    1  UNL1        0.0592
     18 CL          0.0082    5.0431   33.1027 Cl      1  UNL1       -0.0822
     19 C           1.7985    3.3435   33.9130 C.ar    1  UNL1        0.0115
     20 C           2.5912    2.0889   33.6951 C.ar    1  UNL1        0.0036
     21 C           2.3864    1.2792   32.4491 C.ar    1  UNL1        0.0312
     22 C           8.8372   -3.8335   31.6375 C.3     1  UNL1        0.1022
     23 N           8.6811   -4.8433   30.5395 N.3     1  UNL1       -0.2689
     24 C           9.2645   -7.1826   29.5712 C.3     1  UNL1        0.0188
     25 C           9.1565   -6.2514   30.7423 C.3     1  UNL1        0.0724
     26 C           8.0495   -4.4450   29.2384 C.3     1  UNL1        0.0724
     27 C           6.6171   -4.7940   28.9622 C.3     1  UNL1        0.0188
@<TRIPOS>BOND
     1    24    25    1
     2    25    23    1
     3    23    26    1
     4    26    27    1
     5    23    22    1
     6    22     1    1
     7     1     2   ar
     8     2     3   ar
     9     3     4   ar
    10     4     9    1
    11     9    11    1
    12    11    12   ar
    13    12    13   ar
    14    13    14   ar
    15    14    15   ar
    16    15    16   ar
    17    16    17   ar
    18    17    18    1
    19    17    19   ar
    20    19    20   ar
    21    20    21   ar
    22     4     5   ar
    23     5     6   ar
    24     6     7    1
    25     6     1   ar
    26    21    11   ar
    27    21    15   ar
    28     9    10    1
    29     7     8    1
@<TRIPOS>MOLECULE
*****
 27 29 0 0 0
SMALL
GASTEIGER

@<TRIPOS>ATOM
      1 C           6.9459   -4.2120   22.8991 C.ar    1  UNL1        0.0277
      2 C           5.5281   -3.8372   23.2139 C.ar    1  UNL1        0.0014
      3 C           4.5760   -3.5046   22.1036 C.ar    1  UNL1        0.0145
      4 C           5.0418   -3.5468   20.6784 C.ar    1  UNL1        0.0513
      5 C           6.4597   -3.9217   20.3635 C.ar    1  UNL1        0.0509
      6 C           7.4118   -4.2543   21.4739 C.ar    1  UNL1        0.1322
      7 O           8.8296   -4.6292   21.1590 O.3     1  UNL1       -0.5057
      8 H           9.1206   -4.6555   20.2688 H       1  UNL1        0.2922
      9 N           4.0897   -3.2142   19.5680 N.pl3   1  UNL1       -0.3124
     10 H           3.4318   -3.8819   19.2671 H       1  UNL1        0.1522
     11 C           4.1402   -1.8642   18.9160 C.ar    1  UNL1        0.0513
     12 C           5.2666   -1.5218   17.9866 C.ar    1  UNL1        0.0353
     13 C           5.3170   -0.1719   17.3346 C.ar    1  UNL1        0.1001
     14 N           4.2409    0.8356   17.6120 N.ar    1  UNL1       -0.2437
     15 C           3.1145    0.4932   18.5414 C.ar    1  UNL1        0.0833
     16 C           2.0384    1.5007   18.8188 C.ar    1  UNL1        0.0305
     17 C           0.9119    1.1583   19.7482 C.ar    1  UNL1        0.0592
     18 CL         -0.1642    2.1658   20.0256 Cl      1  UNL1       -0.0822
     19 C           0.8615   -0.1917   20.4002 C.ar    1  UNL1        0.0115
     20 C           1.9376   -1.1992   20.1228 C.ar    1  UNL1        0.0036
     21 C           3.0641   -0.8567   19.1934 C.ar    1  UNL1        0.0312
     22 C           7.8980   -4.5447   24.0095 C.3     1  UNL1        0.1022
     23 N           7.6107   -5.6989   24.9233 N.3     1  UNL1       -0.2689
     24 C           9.0064   -7.2957   23.4224 C.3     1  UNL1        0.0188
     25 C           8.0100   -7.0887   24.5245 C.3     1  UNL1        0.0724
     26 C           6.9240   -5.4634   26.2360 C.3     1  UNL1        0.0724
     27 C           6.7831   -4.0685   26.7691 C.3     1  UNL1        0.0188
@<TRIPOS>BOND
     1    24    25    1
     2    25    23    1
     3    23    26    1
     4    26    27    1
     5    23    22    1
     6    22     1    1
     7     1     2   ar
     8     2     3   ar
     9     3     4   ar
    10     4     9    1
    11     9    11    1
    12    11    12   ar
    13    12    13   ar
    14    13    14   ar
    15    14    15   ar
    16    15    16   ar
    17    16    17   ar
    18    17    18    1
    19    17    19   ar
    20    19    20   ar
    21    20    21   ar
    22     4     5   ar
    23     5     6   ar
    24     6     7    1
    25     6     1   ar
    26    21    11   ar
    27    21    15   ar
    28     9    10    1
    29     7     8    1
@<TRIPOS>MOLECULE
*****
 27 29 0 0 0
SMALL
GASTEIGER

@<TRIPOS>ATOM
      1 C           2.5705    0.2833   18.7953 C.ar    1  UNL1        0.0277
      2 C           2.9899    1.6335   18.2945 C.ar    1  UNL1        0.0014
      3 C           2.1139    2.8274   18.5335 C.ar    1  UNL1        0.0145
      4 C           0.8184    2.6711   19.2732 C.ar    1  UNL1        0.0513
      5 C           0.3989    1.3208   19.7740 C.ar    1  UNL1        0.0509
      6 C           1.2749    0.1269   19.5351 C.ar    1  UNL1        0.1322
      7 O           0.8555   -1.2234   20.0358 O.3     1  UNL1       -0.5057
      8 H           0.0462   -1.3211   20.4979 H       1  UNL1        0.2922
      9 N          -0.0577    3.8650   19.5121 N.pl3   1  UNL1       -0.3124
     10 H           0.2934    4.6427   20.0032 H       1  UNL1        0.1522
     11 C          -1.4686    3.8740   19.0028 C.ar    1  UNL1        0.0513
     12 C          -1.7332    3.9556   17.5286 C.ar    1  UNL1        0.0353
     13 C          -3.1441    3.9645   17.0194 C.ar    1  UNL1        0.1001
     14 N          -4.2902    3.8919   17.9843 N.ar    1  UNL1       -0.2437
     15 C          -4.0256    3.8103   19.4584 C.ar    1  UNL1        0.0833
     16 C          -5.1717    3.7377   20.4233 C.ar    1  UNL1        0.0305
     17 C          -4.9070    3.6561   21.8975 C.ar    1  UNL1        0.0592
     18 CL         -6.0532    3.5834   22.8624 Cl      1  UNL1       -0.0822
     19 C          -3.4961    3.6471   22.4069 C.ar    1  UNL1        0.0115
     20 C          -2.3500    3.7197   21.4420 C.ar    1  UNL1        0.0036
     21 C          -2.6147    3.8013   19.9677 C.ar    1  UNL1        0.0312
     22 C           3.4465   -0.9107   18.5563 C.3     1  UNL1        0.1022
     23 N           3.7713   -1.8410   19.6872 N.3     1  UNL1       -0.2689
     24 C           4.6137   -4.1756   18.9192 C.3     1  UNL1        0.0188
     25 C           3.5482   -3.3162   19.5325 C.3     1  UNL1        0.0724
     26 C           4.3192   -1.2960   20.9729 C.3     1  UNL1        0.0724
     27 C           3.6596   -1.6409   22.2752 C.3     1  UNL1        0.0188
@<TRIPOS>BOND
     1    24    25    1
     2    25    23    1
     3    23    26    1
     4    26    27    1
     5    23    22    1
     6    22     1    1
     7     1     2   ar
     8     2     3   ar
     9     3     4   ar
    10     4     9    1
    11     9    11    1
    12    11    12   ar
    13    12    13   ar
    14    13    14   ar
    15    14    15   ar
    16    15    16   ar
    17    16    17   ar
    18    17    18    1
    19    17    19   ar
    20    19    20   ar
    21    20    21   ar
    22     4     5   ar
    23     5     6   ar
    24     6     7    1
    25     6     1   ar
    26    21    11   ar
    27    21    15   ar
    28     9    10    1
    29     7     8    1
