@<TRIPOS>MOLECULE
*****
 28 32 0 0 0
SMALL
GASTEIGER

@<TRIPOS>ATOM
      1 S         -11.2531  -17.4151   20.9229 S.3     1  UNL1       -0.0656
      2 C         -10.1833  -16.6307   21.6231 C.ar    1  UNL1        0.1936
      3 N          -9.4000  -15.4922   21.0398 N.ar    1  UNL1       -0.1221
      4 N          -8.4416  -15.0049   22.0857 N.ar    1  UNL1       -0.1282
      5 C          -8.6324  -15.8424   23.3155 C.ar    1  UNL1        0.1668
      6 N          -9.7088  -16.8471   23.0296 N.ar    1  UNL1       -0.2923
      7 C          -7.8791  -15.7000   24.6047 C.ar    1  UNL1        0.0390
      8 C          -8.6256  -15.5838   25.9006 C.ar    1  UNL1        0.0237
      9 C          -7.8724  -15.4414   27.1899 C.ar    1  UNL1        0.0990
     10 N          -6.3726  -15.4152   27.1833 N.ar    1  UNL1       -0.2423
     11 C          -5.6261  -15.5313   25.8874 C.ar    1  UNL1        0.0990
     12 C          -6.3794  -15.6737   24.5981 C.ar    1  UNL1        0.0237
     13 C         -10.2210  -17.8860   23.9827 C.3     1  UNL1        0.0889
     14 C         -11.3649  -18.6563   24.5728 C.3     1  UNL1        0.0246
     15 C          -9.9644  -18.9150   25.0435 C.3     1  UNL1        0.0246
     16 C         -10.9846  -18.8243   20.4847 C.3     1  UNL1        0.1517
     17 C          -7.1833  -19.5999   20.3652 C.ar    1  UNL1        0.2497
     18 N          -7.6575  -20.2812   19.1159 N.ar    1  UNL1       -0.1072
     19 N          -9.1392  -20.0736   19.0086 N.ar    1  UNL1       -0.1105
     20 C          -9.5807  -19.2640   20.1916 C.ar    1  UNL1        0.2378
     21 O          -8.3719  -18.9712   21.0301 O.2     1  UNL1       -0.4186
     22 CL         -3.6875  -17.9746   23.8491 Cl      1  UNL1       -0.0613
     23 C          -4.0209  -18.7425   22.6045 C.ar    1  UNL1        0.1385
     24 C          -5.4353  -18.7873   22.1072 C.ar    1  UNL1        0.0355
     25 C          -5.7688  -19.5551   20.8625 C.ar    1  UNL1        0.0590
     26 C          -4.6878  -20.2782   20.1151 C.ar    1  UNL1        0.0254
     27 C          -3.2734  -20.2334   20.6124 C.ar    1  UNL1        0.1000
     28 N          -2.9399  -19.4655   21.8571 N.ar    1  UNL1       -0.2324
@<TRIPOS>BOND
     1    22    23    1
     2    23    24   ar
     3    24    25   ar
     4    25    17    1
     5    17    18   ar
     6    18    19   ar
     7    19    20   ar
     8    20    16    1
     9    16     1    1
    10     1     2    1
    11     2     3   ar
    12     3     4   ar
    13     4     5   ar
    14     5     7    1
    15     7     8   ar
    16     8     9   ar
    17     9    10   ar
    18    10    11   ar
    19    11    12   ar
    20     5     6   ar
    21     6    13    1
    22    13    14    1
    23    14    15    1
    24    20    21   ar
    25    25    26   ar
    26    26    27   ar
    27    27    28   ar
    28    28    23   ar
    29    21    17   ar
    30     6     2   ar
    31    15    13    1
    32    12     7   ar
@<TRIPOS>MOLECULE
*****
 28 32 0 0 0
SMALL
GASTEIGER

@<TRIPOS>ATOM
      1 S          -7.5266  -15.6166   26.6905 S.3     1  UNL1       -0.0656
      2 C          -8.4261  -16.6623   26.1012 C.ar    1  UNL1        0.1936
      3 N          -9.0749  -17.7898   26.8480 N.ar    1  UNL1       -0.1221
      4 N          -9.8845  -18.5885   25.8698 N.ar    1  UNL1       -0.1282
      5 C          -9.7360  -17.9547   24.5185 C.ar    1  UNL1        0.1668
      6 N          -8.8346  -16.7642   24.6614 N.ar    1  UNL1       -0.2923
      7 C         -10.3763  -18.4282   23.2474 C.ar    1  UNL1        0.0390
      8 C          -9.8982  -19.6895   22.5914 C.ar    1  UNL1        0.0237
      9 C         -10.5385  -20.1631   21.3204 C.ar    1  UNL1        0.0990
     10 N         -11.6570  -19.3753   20.7053 N.ar    1  UNL1       -0.2423
     11 C         -12.1351  -18.1140   21.3613 C.ar    1  UNL1        0.0990
     12 C         -11.4948  -17.6404   22.6323 C.ar    1  UNL1        0.0237
     13 C          -8.4154  -15.8382   23.5584 C.3     1  UNL1        0.0889
     14 C          -8.0230  -14.4677   23.0916 C.3     1  UNL1        0.0246
     15 C          -8.0815  -15.6046   22.1148 C.3     1  UNL1        0.0246
     16 C          -6.0380  -15.7954   26.6447 C.3     1  UNL1        0.1517
     17 C          -4.0524  -16.6699   23.4264 C.ar    1  UNL1        0.2497
     18 N          -4.4317  -15.2444   23.1545 N.ar    1  UNL1       -0.1072
     19 N          -5.2217  -14.7433   24.3270 N.ar    1  UNL1       -0.1105
     20 C          -5.3306  -15.8591   25.3236 C.ar    1  UNL1        0.2378
     21 O          -4.6080  -17.0498   24.7669 O.2     1  UNL1       -0.4186
     22 CL         -0.1702  -17.3212   20.0346 Cl      1  UNL1       -0.0613
     23 C          -1.3160  -17.8851   20.8214 C.ar    1  UNL1        0.1385
     24 C          -2.1113  -16.9956   21.7305 C.ar    1  UNL1        0.0355
     25 C          -3.2571  -17.5595   22.5173 C.ar    1  UNL1        0.0590
     26 C          -3.6077  -19.0128   22.3952 C.ar    1  UNL1        0.0254
     27 C          -2.8124  -19.9022   21.4861 C.ar    1  UNL1        0.1000
     28 N          -1.6666  -19.3384   20.6993 N.ar    1  UNL1       -0.2324
@<TRIPOS>BOND
     1    22    23    1
     2    23    24   ar
     3    24    25   ar
     4    25    17    1
     5    17    18   ar
     6    18    19   ar
     7    19    20   ar
     8    20    16    1
     9    16     1    1
    10     1     2    1
    11     2     3   ar
    12     3     4   ar
    13     4     5   ar
    14     5     7    1
    15     7     8   ar
    16     8     9   ar
    17     9    10   ar
    18    10    11   ar
    19    11    12   ar
    20     5     6   ar
    21     6    13    1
    22    13    14    1
    23    14    15    1
    24    20    21   ar
    25    25    26   ar
    26    26    27   ar
    27    27    28   ar
    28    28    23   ar
    29    21    17   ar
    30     6     2   ar
    31    15    13    1
    32    12     7   ar
@<TRIPOS>MOLECULE
*****
 28 32 0 0 0
SMALL
GASTEIGER

@<TRIPOS>ATOM
      1 S          -6.8898  -15.0936   25.3156 S.3     1  UNL1       -0.0656
      2 C          -7.5000  -15.4616   23.9957 C.ar    1  UNL1        0.1936
      3 N          -7.1868  -14.8284   22.6725 N.ar    1  UNL1       -0.1221
      4 N          -8.0237  -15.5029   21.6262 N.ar    1  UNL1       -0.1282
      5 C          -8.8542  -16.5529   22.3028 C.ar    1  UNL1        0.1668
      6 N          -8.5305  -16.5274   23.7672 N.ar    1  UNL1       -0.2923
      7 C          -9.8359  -17.4677   21.6326 C.ar    1  UNL1        0.0390
      8 C         -11.3080  -17.2070   21.7546 C.ar    1  UNL1        0.0237
      9 C         -12.2898  -18.1218   21.0845 C.ar    1  UNL1        0.0990
     10 N         -11.7996  -19.2973   20.2922 N.ar    1  UNL1       -0.2423
     11 C         -10.3274  -19.5581   20.1702 C.ar    1  UNL1        0.0990
     12 C          -9.3456  -18.6433   20.8404 C.ar    1  UNL1        0.0237
     13 C          -9.1317  -17.4123   24.8187 C.3     1  UNL1        0.0889
     14 C          -9.9366  -18.6210   25.1943 C.3     1  UNL1        0.0246
     15 C          -9.3681  -17.7363   26.2640 C.3     1  UNL1        0.0246
     16 C          -5.4122  -15.2426   25.5264 C.3     1  UNL1        0.1517
     17 C          -3.5624  -17.5829   23.0431 C.ar    1  UNL1        0.2497
     18 N          -3.4197  -18.3493   24.3247 N.ar    1  UNL1       -0.1072
     19 N          -4.0952  -17.5659   25.4109 N.ar    1  UNL1       -0.1105
     20 C          -4.6555  -16.3153   24.8007 C.ar    1  UNL1        0.2378
     21 O          -4.3261  -16.3259   23.3373 O.2     1  UNL1       -0.4186
     22 CL          0.2963  -17.7014   19.5651 Cl      1  UNL1       -0.0613
     23 C          -1.1047  -18.0596   19.9637 C.ar    1  UNL1        0.1385
     24 C          -1.6330  -17.6422   21.3041 C.ar    1  UNL1        0.0355
     25 C          -3.0340  -18.0004   21.7027 C.ar    1  UNL1        0.0590
     26 C          -3.9067  -18.7759   20.7609 C.ar    1  UNL1        0.0254
     27 C          -3.3784  -19.1933   19.4206 C.ar    1  UNL1        0.1000
     28 N          -1.9774  -18.8351   19.0220 N.ar    1  UNL1       -0.2324
@<TRIPOS>BOND
     1    22    23    1
     2    23    24   ar
     3    24    25   ar
     4    25    17    1
     5    17    18   ar
     6    18    19   ar
     7    19    20   ar
     8    20    16    1
     9    16     1    1
    10     1     2    1
    11     2     3   ar
    12     3     4   ar
    13     4     5   ar
    14     5     7    1
    15     7     8   ar
    16     8     9   ar
    17     9    10   ar
    18    10    11   ar
    19    11    12   ar
    20     5     6   ar
    21     6    13    1
    22    13    14    1
    23    14    15    1
    24    20    21   ar
    25    25    26   ar
    26    26    27   ar
    27    27    28   ar
    28    28    23   ar
    29    21    17   ar
    30     6     2   ar
    31    15    13    1
    32    12     7   ar
@<TRIPOS>MOLECULE
*****
 28 32 0 0 0
SMALL
GASTEIGER

@<TRIPOS>ATOM
      1 S         -11.5182  -18.2442   21.0568 S.3     1  UNL1       -0.0656
      2 C         -10.7014  -18.1843   22.3134 C.ar    1  UNL1        0.1936
      3 N         -10.7212  -19.1896   23.4266 N.ar    1  UNL1       -0.1221
      4 N          -9.7534  -18.7352   24.4787 N.ar    1  UNL1       -0.1282
      5 C          -9.1356  -17.4491   24.0159 C.ar    1  UNL1        0.1668
      6 N          -9.7215  -17.1086   22.6777 N.ar    1  UNL1       -0.2923
      7 C          -8.1117  -16.6448   24.7606 C.ar    1  UNL1        0.0390
      8 C          -6.7756  -16.3695   24.1367 C.ar    1  UNL1        0.0237
      9 C          -5.7516  -15.5651   24.8813 C.ar    1  UNL1        0.0990
     10 N          -6.0637  -15.0361   26.2497 N.ar    1  UNL1       -0.2423
     11 C          -7.3997  -15.3114   26.8736 C.ar    1  UNL1        0.0990
     12 C          -8.4237  -16.1157   26.1290 C.ar    1  UNL1        0.0237
     13 C          -9.3863  -15.9040   21.8491 C.3     1  UNL1        0.0889
     14 C          -8.4339  -14.8056   21.4796 C.3     1  UNL1        0.0246
     15 C          -9.7581  -14.9160   20.7835 C.3     1  UNL1        0.0246
     16 C         -10.8571  -18.5554   19.7468 C.3     1  UNL1        0.1517
     17 C          -7.0925  -19.4236   20.1201 C.ar    1  UNL1        0.2497
     18 N          -7.5660  -20.5533   19.2544 N.ar    1  UNL1       -0.1072
     19 N          -9.0339  -20.3656   19.0091 N.ar    1  UNL1       -0.1105
     20 C          -9.4676  -19.1198   19.7233 C.ar    1  UNL1        0.2378
     21 O          -8.2678  -18.5376   20.4100 O.2     1  UNL1       -0.4186
     22 CL         -2.0565  -18.6060   19.1352 Cl      1  UNL1       -0.0613
     23 C          -3.1720  -18.8074   20.1176 C.ar    1  UNL1        0.1385
     24 C          -4.5745  -19.0148   19.6277 C.ar    1  UNL1        0.0355
     25 C          -5.6900  -19.2161   20.6101 C.ar    1  UNL1        0.0590
     26 C          -5.4031  -19.2101   22.0823 C.ar    1  UNL1        0.0254
     27 C          -4.0006  -19.0027   22.5722 C.ar    1  UNL1        0.1000
     28 N          -2.8851  -18.8013   21.5899 N.ar    1  UNL1       -0.2324
@<TRIPOS>BOND
     1    22    23    1
     2    23    24   ar
     3    24    25   ar
     4    25    17    1
     5    17    18   ar
     6    18    19   ar
     7    19    20   ar
     8    20    16    1
     9    16     1    1
    10     1     2    1
    11     2     3   ar
    12     3     4   ar
    13     4     5   ar
    14     5     7    1
    15     7     8   ar
    16     8     9   ar
    17     9    10   ar
    18    10    11   ar
    19    11    12   ar
    20     5     6   ar
    21     6    13    1
    22    13    14    1
    23    14    15    1
    24    20    21   ar
    25    25    26   ar
    26    26    27   ar
    27    27    28   ar
    28    28    23   ar
    29    21    17   ar
    30     6     2   ar
    31    15    13    1
    32    12     7   ar
@<TRIPOS>MOLECULE
*****
 28 32 0 0 0
SMALL
GASTEIGER

@<TRIPOS>ATOM
      1 S           5.7479   -3.7163   19.8549 S.3     1  UNL1       -0.0656
      2 C           5.2034   -2.5929   19.0234 C.ar    1  UNL1        0.1936
      3 N           5.4792   -2.3595   17.5676 N.ar    1  UNL1       -0.1221
      4 N           4.7336   -1.1280   17.1462 N.ar    1  UNL1       -0.1282
      5 C           3.9970   -0.6003   18.3415 C.ar    1  UNL1        0.1668
      6 N           4.2873   -1.5056   19.5017 N.ar    1  UNL1       -0.2923
      7 C           3.1235    0.6187   18.3714 C.ar    1  UNL1        0.0390
      8 C           3.7428    1.9848   18.3901 C.ar    1  UNL1        0.0237
      9 C           2.8693    3.2039   18.4199 C.ar    1  UNL1        0.0990
     10 N           1.3766    3.0569   18.4311 N.ar    1  UNL1       -0.2423
     11 C           0.7573    1.6908   18.4124 C.ar    1  UNL1        0.0990
     12 C           1.6308    0.4717   18.3825 C.ar    1  UNL1        0.0237
     13 C           3.7550   -1.3509   20.8956 C.3     1  UNL1        0.0889
     14 C           3.8586   -1.6359   22.3646 C.3     1  UNL1        0.0246
     15 C           2.7298   -0.7983   21.8408 C.3     1  UNL1        0.0246
     16 C           7.0491   -3.5486   20.5821 C.3     1  UNL1        0.1517
     17 C           7.9458   -5.9638   23.4853 C.ar    1  UNL1        0.2497
     18 N           8.6477   -6.6211   22.3341 N.ar    1  UNL1       -0.1072
     19 N           8.3973   -5.7964   21.1065 N.ar    1  UNL1       -0.1105
     20 C           7.5405   -4.6293   21.4989 C.ar    1  UNL1        0.2378
     21 O           7.2614   -4.7329   22.9691 O.2     1  UNL1       -0.4186
     22 CL          6.4506   -5.3844   28.4278 Cl      1  UNL1       -0.0613
     23 C           7.1831   -6.1621   27.3749 C.ar    1  UNL1        0.1385
     24 C           7.1982   -5.6742   25.9566 C.ar    1  UNL1        0.0355
     25 C           7.9307   -6.4518   24.9036 C.ar    1  UNL1        0.0590
     26 C           8.6481   -7.7174   25.2690 C.ar    1  UNL1        0.0254
     27 C           8.6330   -8.2053   26.6873 C.ar    1  UNL1        0.1000
     28 N           7.9005   -7.4277   27.7403 N.ar    1  UNL1       -0.2324
@<TRIPOS>BOND
     1    22    23    1
     2    23    24   ar
     3    24    25   ar
     4    25    17    1
     5    17    18   ar
     6    18    19   ar
     7    19    20   ar
     8    20    16    1
     9    16     1    1
    10     1     2    1
    11     2     3   ar
    12     3     4   ar
    13     4     5   ar
    14     5     7    1
    15     7     8   ar
    16     8     9   ar
    17     9    10   ar
    18    10    11   ar
    19    11    12   ar
    20     5     6   ar
    21     6    13    1
    22    13    14    1
    23    14    15    1
    24    20    21   ar
    25    25    26   ar
    26    26    27   ar
    27    27    28   ar
    28    28    23   ar
    29    21    17   ar
    30     6     2   ar
    31    15    13    1
    32    12     7   ar
@<TRIPOS>MOLECULE
*****
 28 32 0 0 0
SMALL
GASTEIGER

@<TRIPOS>ATOM
      1 S           5.7629   -3.6363   19.8664 S.3     1  UNL1       -0.0656
      2 C           5.2028   -2.5247   19.0295 C.ar    1  UNL1        0.1936
      3 N           5.4567   -2.3080   17.5671 N.ar    1  UNL1       -0.1221
      4 N           4.7011   -1.0839   17.1418 N.ar    1  UNL1       -0.1282
      5 C           3.9803   -0.5441   18.3413 C.ar    1  UNL1        0.1668
      6 N           4.2903   -1.4345   19.5080 N.ar    1  UNL1       -0.2923
      7 C           3.1034    0.6726   18.3693 C.ar    1  UNL1        0.0390
      8 C           1.6111    0.5213   18.3808 C.ar    1  UNL1        0.0237
      9 C           0.7341    1.7379   18.4088 C.ar    1  UNL1        0.0990
     10 N           1.3495    3.1058   18.4252 N.ar    1  UNL1       -0.2423
     11 C           2.8418    3.2570   18.4136 C.ar    1  UNL1        0.0990
     12 C           3.7187    2.0404   18.3857 C.ar    1  UNL1        0.0237
     13 C           3.7778   -1.2646   20.9075 C.3     1  UNL1        0.0889
     14 C           3.6797   -1.7515   22.3229 C.3     1  UNL1        0.0246
     15 C           2.9885   -0.4838   21.9161 C.3     1  UNL1        0.0246
     16 C           7.0298   -3.4263   20.6415 C.3     1  UNL1        0.1517
     17 C           7.8389   -5.6768   23.6987 C.ar    1  UNL1        0.2497
     18 N           8.5321   -6.4233   22.5977 N.ar    1  UNL1       -0.1072
     19 N           8.3134   -5.6712   21.3185 N.ar    1  UNL1       -0.1105
     20 C           7.4850   -4.4597   21.6288 C.ar    1  UNL1        0.2378
     21 O           7.1918   -4.4632   23.0999 O.2     1  UNL1       -0.4186
     22 CL          8.5132   -9.2599   27.4009 Cl      1  UNL1       -0.0613
     23 C           8.1369   -7.8656   26.9957 C.ar    1  UNL1        0.1385
     24 C           8.1760   -7.4683   25.5498 C.ar    1  UNL1        0.0355
     25 C           7.7997   -6.0740   25.1446 C.ar    1  UNL1        0.0590
     26 C           7.3841   -5.0769   26.1853 C.ar    1  UNL1        0.0254
     27 C           7.3449   -5.4742   27.6312 C.ar    1  UNL1        0.1000
     28 N           7.7213   -6.8685   28.0364 N.ar    1  UNL1       -0.2324
@<TRIPOS>BOND
     1    22    23    1
     2    23    24   ar
     3    24    25   ar
     4    25    17    1
     5    17    18   ar
     6    18    19   ar
     7    19    20   ar
     8    20    16    1
     9    16     1    1
    10     1     2    1
    11     2     3   ar
    12     3     4   ar
    13     4     5   ar
    14     5     7    1
    15     7     8   ar
    16     8     9   ar
    17     9    10   ar
    18    10    11   ar
    19    11    12   ar
    20     5     6   ar
    21     6    13    1
    22    13    14    1
    23    14    15    1
    24    20    21   ar
    25    25    26   ar
    26    26    27   ar
    27    27    28   ar
    28    28    23   ar
    29    21    17   ar
    30     6     2   ar
    31    15    13    1
    32    12     7   ar
@<TRIPOS>MOLECULE
*****
 28 32 0 0 0
SMALL
GASTEIGER

@<TRIPOS>ATOM
      1 S          -7.9367  -15.4461   26.4480 S.3     1  UNL1       -0.0656
      2 C          -8.4835  -16.6457   25.7325 C.ar    1  UNL1        0.1936
      3 N          -9.0128  -17.8919   26.3780 N.ar    1  UNL1       -0.1221
      4 N          -9.4534  -18.8261   25.2903 N.ar    1  UNL1       -0.1282
      5 C          -9.1963  -18.1573   23.9725 C.ar    1  UNL1        0.1668
      6 N          -8.5969  -16.8097   24.2458 N.ar    1  UNL1       -0.2923
      7 C          -9.4876  -18.7347   22.6191 C.ar    1  UNL1        0.0390
      8 C          -8.3788  -18.9102   21.6242 C.ar    1  UNL1        0.0237
      9 C          -8.6700  -19.4876   20.2708 C.ar    1  UNL1        0.0990
     10 N         -10.0700  -19.8894   19.9122 N.ar    1  UNL1       -0.2423
     11 C         -11.1788  -19.7139   20.9071 C.ar    1  UNL1        0.0990
     12 C         -10.8876  -19.1365   22.2605 C.ar    1  UNL1        0.0237
     13 C          -8.1834  -15.8028   23.2137 C.3     1  UNL1        0.0889
     14 C          -7.3170  -14.6520   22.7957 C.3     1  UNL1        0.0246
     15 C          -8.3337  -15.2097   21.8442 C.3     1  UNL1        0.0246
     16 C          -6.4807  -15.3839   26.8034 C.3     1  UNL1        0.1517
     17 C          -4.1746  -17.1783   24.2486 C.ar    1  UNL1        0.2497
     18 N          -3.7483  -17.8294   25.5309 N.ar    1  UNL1       -0.1072
     19 N          -4.5603  -17.2364   26.6440 N.ar    1  UNL1       -0.1105
     20 C          -5.4885  -16.2189   26.0497 C.ar    1  UNL1        0.2378
     21 O          -5.2500  -16.1830   24.5692 O.2     1  UNL1       -0.4186
     22 CL         -4.0826  -20.1224   19.9679 Cl      1  UNL1       -0.0613
     23 C          -3.5764  -18.9432   20.7446 C.ar    1  UNL1        0.1385
     24 C          -4.1286  -18.6503   22.1082 C.ar    1  UNL1        0.0355
     25 C          -3.6224  -17.4712   22.8849 C.ar    1  UNL1        0.0590
     26 C          -2.5640  -16.5849   22.2982 C.ar    1  UNL1        0.0254
     27 C          -2.0119  -16.8778   20.9346 C.ar    1  UNL1        0.1000
     28 N          -2.5181  -18.0569   20.1579 N.ar    1  UNL1       -0.2324
@<TRIPOS>BOND
     1    22    23    1
     2    23    24   ar
     3    24    25   ar
     4    25    17    1
     5    17    18   ar
     6    18    19   ar
     7    19    20   ar
     8    20    16    1
     9    16     1    1
    10     1     2    1
    11     2     3   ar
    12     3     4   ar
    13     4     5   ar
    14     5     7    1
    15     7     8   ar
    16     8     9   ar
    17     9    10   ar
    18    10    11   ar
    19    11    12   ar
    20     5     6   ar
    21     6    13    1
    22    13    14    1
    23    14    15    1
    24    20    21   ar
    25    25    26   ar
    26    26    27   ar
    27    27    28   ar
    28    28    23   ar
    29    21    17   ar
    30     6     2   ar
    31    15    13    1
    32    12     7   ar
@<TRIPOS>MOLECULE
*****
 28 32 0 0 0
SMALL
GASTEIGER

@<TRIPOS>ATOM
      1 S           8.4077   -1.9110   19.4190 S.3     1  UNL1       -0.0656
      2 C           7.0390   -1.7155   18.8373 C.ar    1  UNL1        0.1936
      3 N           6.6094   -2.0883   17.4494 N.ar    1  UNL1       -0.1221
      4 N           5.1644   -1.7161   17.2957 N.ar    1  UNL1       -0.1282
      5 C           4.7010   -1.1134   18.5888 C.ar    1  UNL1        0.1668
      6 N           5.8595   -1.1130   19.5415 N.ar    1  UNL1       -0.2923
      7 C           3.3212   -0.6010   18.8782 C.ar    1  UNL1        0.0390
      8 C           2.4739   -1.2741   19.9169 C.ar    1  UNL1        0.0237
      9 C           1.0941   -0.7618   20.2064 C.ar    1  UNL1        0.0990
     10 N           0.5618    0.4236   19.4571 N.ar    1  UNL1       -0.2423
     11 C           1.4091    1.0967   18.4184 C.ar    1  UNL1        0.0990
     12 C           2.7889    0.5844   18.1289 C.ar    1  UNL1        0.0237
     13 C           5.8418   -0.6002   20.9510 C.3     1  UNL1        0.0889
     14 C           5.2020   -0.5489   22.3067 C.3     1  UNL1        0.0246
     15 C           6.4509    0.2367   22.0367 C.3     1  UNL1        0.0246
     16 C           8.6934   -3.1061   20.2792 C.3     1  UNL1        0.1517
     17 C           6.7614   -3.6872   23.5951 C.ar    1  UNL1        0.2497
     18 N           5.8632   -4.3772   22.6116 N.ar    1  UNL1       -0.1072
     19 N           6.4777   -4.2435   21.2498 N.ar    1  UNL1       -0.1105
     20 C           7.7556   -3.4709   21.3916 C.ar    1  UNL1        0.2378
     21 O           7.9309   -3.1271   22.8411 O.2     1  UNL1       -0.4186
     22 CL          7.0223   -5.7504   28.3570 Cl      1  UNL1       -0.0613
     23 C           6.6610   -4.6083   27.4540 C.ar    1  UNL1        0.1385
     24 C           6.8918   -4.7188   25.9761 C.ar    1  UNL1        0.0355
     25 C           6.5305   -3.5768   25.0731 C.ar    1  UNL1        0.0590
     26 C           5.9385   -2.3243   25.6482 C.ar    1  UNL1        0.0254
     27 C           5.7077   -2.2139   27.1262 C.ar    1  UNL1        0.1000
     28 N           6.0690   -3.3559   28.0291 N.ar    1  UNL1       -0.2324
@<TRIPOS>BOND
     1    22    23    1
     2    23    24   ar
     3    24    25   ar
     4    25    17    1
     5    17    18   ar
     6    18    19   ar
     7    19    20   ar
     8    20    16    1
     9    16     1    1
    10     1     2    1
    11     2     3   ar
    12     3     4   ar
    13     4     5   ar
    14     5     7    1
    15     7     8   ar
    16     8     9   ar
    17     9    10   ar
    18    10    11   ar
    19    11    12   ar
    20     5     6   ar
    21     6    13    1
    22    13    14    1
    23    14    15    1
    24    20    21   ar
    25    25    26   ar
    26    26    27   ar
    27    27    28   ar
    28    28    23   ar
    29    21    17   ar
    30     6     2   ar
    31    15    13    1
    32    12     7   ar
@<TRIPOS>MOLECULE
*****
 28 32 0 0 0
SMALL
GASTEIGER

@<TRIPOS>ATOM
      1 S          -0.4860    3.4572   20.5590 S.3     1  UNL1       -0.0656
      2 C          -1.7985    3.4428   21.2851 C.ar    1  UNL1        0.1936
      3 N          -3.0607    2.7849   20.8120 N.ar    1  UNL1       -0.1221
      4 N          -4.1215    3.0193   21.8464 N.ar    1  UNL1       -0.1282
      5 C          -3.5148    3.8219   22.9588 C.ar    1  UNL1        0.1668
      6 N          -2.0791    4.0837   22.6120 N.ar    1  UNL1       -0.2923
      7 C          -4.2200    4.2820   24.2002 C.ar    1  UNL1        0.0390
      8 C          -3.7476    3.8188   25.5464 C.ar    1  UNL1        0.0237
      9 C          -4.4528    4.2789   26.7878 C.ar    1  UNL1        0.0990
     10 N          -5.6303    5.2022   26.6829 N.ar    1  UNL1       -0.2423
     11 C          -6.1026    5.6654   25.3367 C.ar    1  UNL1        0.0990
     12 C          -5.3975    5.2053   24.0953 C.ar    1  UNL1        0.0237
     13 C          -1.0964    4.8515   23.4456 C.3     1  UNL1        0.0889
     14 C          -0.2675    6.0807   23.6737 C.3     1  UNL1        0.0246
     15 C          -0.2234    4.9524   24.6612 C.3     1  UNL1        0.0246
     16 C          -0.2574    2.5272   19.4045 C.3     1  UNL1        0.1517
     17 C           2.2363   -0.4469   19.3702 C.ar    1  UNL1        0.2497
     18 N           1.2750   -0.8870   20.4342 N.ar    1  UNL1       -0.1072
     19 N           0.2238    0.1735   20.5766 N.ar    1  UNL1       -0.1105
     20 C           0.5355    1.2691   19.6005 C.ar    1  UNL1        0.2378
     21 O           1.7793    0.8856   18.8549 O.2     1  UNL1       -0.4186
     22 CL          4.7237   -4.9551   18.6706 Cl      1  UNL1       -0.0613
     23 C           4.6866   -3.4602   18.5535 C.ar    1  UNL1        0.1385
     24 C           3.4800   -2.7010   19.0203 C.ar    1  UNL1        0.0355
     25 C           3.4429   -1.2060   18.9033 C.ar    1  UNL1        0.0590
     26 C           4.6124   -0.4702   18.3194 C.ar    1  UNL1        0.0254
     27 C           5.8189   -1.2294   17.8525 C.ar    1  UNL1        0.1000
     28 N           5.8560   -2.7243   17.9696 N.ar    1  UNL1       -0.2324
@<TRIPOS>BOND
     1    22    23    1
     2    23    24   ar
     3    24    25   ar
     4    25    17    1
     5    17    18   ar
     6    18    19   ar
     7    19    20   ar
     8    20    16    1
     9    16     1    1
    10     1     2    1
    11     2     3   ar
    12     3     4   ar
    13     4     5   ar
    14     5     7    1
    15     7     8   ar
    16     8     9   ar
    17     9    10   ar
    18    10    11   ar
    19    11    12   ar
    20     5     6   ar
    21     6    13    1
    22    13    14    1
    23    14    15    1
    24    20    21   ar
    25    25    26   ar
    26    26    27   ar
    27    27    28   ar
    28    28    23   ar
    29    21    17   ar
    30     6     2   ar
    31    15    13    1
    32    12     7   ar
