@<TRIPOS>MOLECULE
*****
 24 27 0 0 0
SMALL
GASTEIGER

@<TRIPOS>ATOM
      1 C         -10.6857  -17.5261   22.7384 C.3     1  UNL1        0.0353
      2 C         -11.6592  -18.4892   22.1264 C.3     1  UNL1        0.0225
      3 C         -12.8524  -17.7088   21.6602 C.3     1  UNL1        0.0689
      4 N         -12.6163  -16.2634   21.9842 N.3     1  UNL1       -0.2972
      5 C         -11.2772  -16.1504   22.6505 C.3     1  UNL1        0.0726
      6 H         -13.3453  -15.9260   22.6128 H       1  UNL1        0.1233
      7 C          -9.5383  -16.8195   23.3976 C.2     1  UNL1       -0.0387
      8 C          -8.5773  -16.0172   22.5716 C.2     1  UNL1       -0.0066
      9 C          -7.4299  -15.3106   23.2308 C.2     1  UNL1        0.0182
     10 C          -7.2438  -15.4066   24.7161 C.2     1  UNL1        0.0777
     11 N          -6.2146  -14.8234   25.6383 N.2     1  UNL1       -0.2442
     12 C          -6.5396  -15.2654   27.0344 C.2     1  UNL1        0.0985
     13 C          -7.7697  -16.1218   26.9749 C.2     1  UNL1        0.0182
     14 C          -8.2049  -16.2090   25.5421 C.2     1  UNL1        0.0011
     15 C          -9.3522  -16.9155   24.8829 C.3     1  UNL1        0.0499
     16 C          -9.8543  -18.7539   22.9641 C.3     1  UNL1        0.0316
     17 C          -6.3586  -19.8081   21.4085 C.ar    1  UNL1        0.1384
     18 C          -6.7199  -19.9326   19.9579 C.ar    1  UNL1        0.0369
     19 C          -8.1259  -19.6643   19.5095 C.ar    1  UNL1        0.0028
     20 C          -9.1707  -19.2714   20.5115 C.ar    1  UNL1       -0.0041
     21 C          -8.8095  -19.1468   21.9620 C.ar    1  UNL1       -0.0188
     22 C          -7.4035  -19.4152   22.4105 C.ar    1  UNL1        0.0326
     23 C          -4.1931  -19.0265   22.6124 C.3     1  UNL1        0.2525
     24 O          -4.9526  -20.0764   21.8570 O.3     1  UNL1       -0.4714
@<TRIPOS>BOND
     1    23    24    1
     2    24    17    1
     3    17    18   ar
     4    18    19   ar
     5    19    20   ar
     6    20    21   ar
     7    21    16    1
     8    16     1    1
     9     1     7    1
    10     7     8    2
    11     8     9    1
    12     9    10    2
    13    10    11    1
    14    11    12    2
    15    12    13    1
    16    13    14    2
    17    14    15    1
    18     1     2    1
    19     2     3    1
    20     3     4    1
    21     4     5    1
    22    21    22   ar
    23    22    17   ar
    24     5     1    1
    25    15     7    1
    26    14    10    1
    27     4     6    1
@<TRIPOS>MOLECULE
*****
 24 27 0 0 0
SMALL
GASTEIGER

@<TRIPOS>ATOM
      1 C          -7.8795  -16.9997   23.5143 C.3     1  UNL1        0.0353
      2 C          -8.9440  -16.4607   24.4234 C.3     1  UNL1        0.0225
      3 C          -8.5077  -15.1055   24.8955 C.3     1  UNL1        0.0689
      4 N          -7.1736  -14.8068   24.2782 N.3     1  UNL1       -0.2972
      5 C          -6.7854  -15.9775   23.4246 C.3     1  UNL1        0.0726
      6 H          -6.4773  -14.6661   25.0101 H       1  UNL1        0.1233
      7 C          -7.0055  -17.7867   22.5832 C.2     1  UNL1       -0.0387
      8 C          -7.5772  -18.3542   21.3180 C.2     1  UNL1       -0.0066
      9 C          -6.7032  -19.1412   20.3869 C.2     1  UNL1        0.0182
     10 C          -5.2575  -19.3606   20.7212 C.2     1  UNL1        0.0777
     11 N          -4.1605  -20.0886   20.0025 N.2     1  UNL1       -0.2442
     12 C          -2.9108  -19.9709   20.8236 C.2     1  UNL1        0.0985
     13 C          -3.2354  -19.1702   22.0498 C.2     1  UNL1        0.0182
     14 C          -4.6858  -18.7930   21.9865 C.2     1  UNL1        0.0011
     15 C          -5.5598  -18.0061   22.9175 C.3     1  UNL1        0.0499
     16 C          -8.7909  -18.1864   23.4093 C.3     1  UNL1        0.0316
     17 C         -12.2199  -17.0758   21.7482 C.ar    1  UNL1        0.1384
     18 C         -13.2031  -17.5843   22.7607 C.ar    1  UNL1        0.0369
     19 C         -12.7155  -18.2935   23.9892 C.ar    1  UNL1        0.0028
     20 C         -11.2447  -18.4942   24.2054 C.ar    1  UNL1       -0.0041
     21 C         -10.2616  -17.9857   23.1931 C.ar    1  UNL1       -0.0188
     22 C         -10.7492  -17.2765   21.9645 C.ar    1  UNL1        0.0326
     23 C         -11.7239  -15.8468   19.5137 C.3     1  UNL1        0.2525
     24 O         -12.7075  -16.3667   20.5197 O.3     1  UNL1       -0.4714
@<TRIPOS>BOND
     1    23    24    1
     2    24    17    1
     3    17    18   ar
     4    18    19   ar
     5    19    20   ar
     6    20    21   ar
     7    21    16    1
     8    16     1    1
     9     1     7    1
    10     7     8    2
    11     8     9    1
    12     9    10    2
    13    10    11    1
    14    11    12    2
    15    12    13    1
    16    13    14    2
    17    14    15    1
    18     1     2    1
    19     2     3    1
    20     3     4    1
    21     4     5    1
    22    21    22   ar
    23    22    17   ar
    24     5     1    1
    25    15     7    1
    26    14    10    1
    27     4     6    1
@<TRIPOS>MOLECULE
*****
 24 27 0 0 0
SMALL
GASTEIGER

@<TRIPOS>ATOM
      1 C         -10.6882  -17.5160   22.8064 C.3     1  UNL1        0.0353
      2 C         -11.6937  -18.4755   22.2424 C.3     1  UNL1        0.0225
      3 C         -12.8586  -17.6796   21.7328 C.3     1  UNL1        0.0689
      4 N         -12.5730  -16.2283   21.9820 N.3     1  UNL1       -0.2972
      5 C         -11.2316  -16.1271   22.6455 C.3     1  UNL1        0.0726
      6 H         -13.2906  -15.8337   22.5900 H       1  UNL1        0.1233
      7 C          -9.5178  -16.8162   23.4315 C.2     1  UNL1       -0.0387
      8 C          -8.5421  -16.0709   22.5699 C.2     1  UNL1       -0.0066
      9 C          -7.3717  -15.3711   23.1950 C.2     1  UNL1        0.0182
     10 C          -7.1772  -15.4167   24.6816 C.2     1  UNL1        0.0777
     11 N          -6.1262  -14.8271   25.5748 N.2     1  UNL1       -0.2442
     12 C          -6.4525  -15.2081   26.9885 C.2     1  UNL1        0.0985
     13 C          -7.7051  -16.0331   26.9689 C.2     1  UNL1        0.0182
     14 C          -8.1530  -16.1620   25.5432 C.2     1  UNL1        0.0011
     15 C          -9.3233  -16.8618   24.9181 C.3     1  UNL1        0.0499
     16 C          -9.9001  -18.7584   23.0981 C.3     1  UNL1        0.0316
     17 C          -8.2080  -19.8238   19.6699 C.ar    1  UNL1        0.1384
     18 C          -6.8430  -20.2294   20.1415 C.ar    1  UNL1        0.0369
     19 C          -6.4971  -20.1447   21.5986 C.ar    1  UNL1        0.0028
     20 C          -7.5161  -19.6543   22.5841 C.ar    1  UNL1       -0.0041
     21 C          -8.8810  -19.2488   22.1125 C.ar    1  UNL1       -0.0188
     22 C          -9.2270  -19.3335   20.6555 C.ar    1  UNL1        0.0326
     23 C          -9.0255  -21.2069   17.6282 C.3     1  UNL1        0.2525
     24 O          -8.5539  -19.9086   18.2128 O.3     1  UNL1       -0.4714
@<TRIPOS>BOND
     1    23    24    1
     2    24    17    1
     3    17    18   ar
     4    18    19   ar
     5    19    20   ar
     6    20    21   ar
     7    21    16    1
     8    16     1    1
     9     1     7    1
    10     7     8    2
    11     8     9    1
    12     9    10    2
    13    10    11    1
    14    11    12    2
    15    12    13    1
    16    13    14    2
    17    14    15    1
    18     1     2    1
    19     2     3    1
    20     3     4    1
    21     4     5    1
    22    21    22   ar
    23    22    17   ar
    24     5     1    1
    25    15     7    1
    26    14    10    1
    27     4     6    1
@<TRIPOS>MOLECULE
*****
 24 27 0 0 0
SMALL
GASTEIGER

@<TRIPOS>ATOM
      1 C          -7.5629  -15.8441   24.9967 C.3     1  UNL1        0.0353
      2 C          -6.2295  -15.2081   25.2565 C.3     1  UNL1        0.0225
      3 C          -6.1632  -14.8483   26.7112 C.3     1  UNL1        0.0689
      4 N          -7.4556  -15.2620   27.3505 N.3     1  UNL1       -0.2972
      5 C          -8.3207  -15.8774   26.2908 C.3     1  UNL1        0.0726
      6 H          -7.9220  -14.4464   27.7476 H       1  UNL1        0.1233
      7 C          -8.7917  -16.5019   24.4421 C.2     1  UNL1       -0.0387
      8 C          -9.3514  -17.7255   25.1049 C.2     1  UNL1       -0.0066
      9 C         -10.5801  -18.3833   24.5503 C.2     1  UNL1        0.0182
     10 C         -11.2491  -17.8173   23.3329 C.2     1  UNL1        0.0777
     11 N         -12.4641  -18.2459   22.5647 N.2     1  UNL1       -0.2442
     12 C         -12.6553  -17.2871   21.4271 C.2     1  UNL1        0.0985
     13 C         -11.5584  -16.2660   21.4922 C.2     1  UNL1        0.0182
     14 C         -10.6894  -16.5937   22.6701 C.2     1  UNL1        0.0011
     15 C          -9.4606  -15.9359   23.2247 C.3     1  UNL1        0.0499
     16 C          -7.0621  -15.9483   23.5867 C.3     1  UNL1        0.0316
     17 C          -5.7926  -19.4011   22.0977 C.ar    1  UNL1        0.1384
     18 C          -4.3282  -19.3248   22.4139 C.ar    1  UNL1        0.0369
     19 C          -3.7752  -18.1231   23.1210 C.ar    1  UNL1        0.0028
     20 C          -4.6865  -16.9976   23.5119 C.ar    1  UNL1       -0.0041
     21 C          -6.1508  -17.0738   23.1958 C.ar    1  UNL1       -0.0188
     22 C          -6.7038  -18.2755   22.4886 C.ar    1  UNL1        0.0326
     23 C          -5.6477  -21.1477   20.1798 C.3     1  UNL1        0.2525
     24 O          -6.3456  -20.6028   21.3906 O.3     1  UNL1       -0.4714
@<TRIPOS>BOND
     1    23    24    1
     2    24    17    1
     3    17    18   ar
     4    18    19   ar
     5    19    20   ar
     6    20    21   ar
     7    21    16    1
     8    16     1    1
     9     1     7    1
    10     7     8    2
    11     8     9    1
    12     9    10    2
    13    10    11    1
    14    11    12    2
    15    12    13    1
    16    13    14    2
    17    14    15    1
    18     1     2    1
    19     2     3    1
    20     3     4    1
    21     4     5    1
    22    21    22   ar
    23    22    17   ar
    24     5     1    1
    25    15     7    1
    26    14    10    1
    27     4     6    1
@<TRIPOS>MOLECULE
*****
 24 27 0 0 0
SMALL
GASTEIGER

@<TRIPOS>ATOM
      1 C          -9.2631  -18.1633   21.6703 C.3     1  UNL1        0.0353
      2 C          -9.5109  -19.2260   20.6411 C.3     1  UNL1        0.0225
      3 C         -10.4398  -18.6621   19.6070 C.3     1  UNL1        0.0689
      4 N         -10.7660  -17.2509   19.9972 N.3     1  UNL1       -0.2972
      5 C         -10.0388  -16.9426   21.2723 C.3     1  UNL1        0.0726
      6 H         -11.7714  -17.1549   20.1402 H       1  UNL1        0.1233
      7 C          -8.8343  -17.3188   22.8335 C.2     1  UNL1       -0.0387
      8 C          -8.1134  -16.0252   22.5958 C.2     1  UNL1       -0.0066
      9 C          -7.6846  -15.1807   23.7591 C.2     1  UNL1        0.0182
     10 C          -7.9769  -15.6300   25.1601 C.2     1  UNL1        0.0777
     11 N          -7.6792  -15.0133   26.4946 N.2     1  UNL1       -0.2442
     12 C          -8.2161  -15.9259   27.5571 C.2     1  UNL1        0.0985
     13 C          -8.8457  -17.1066   26.8792 C.2     1  UNL1        0.0182
     14 C          -8.6979  -16.9238   25.3977 C.2     1  UNL1        0.0011
     15 C          -9.1266  -17.7682   24.2345 C.3     1  UNL1        0.0499
     16 C          -8.3978  -19.2073   22.3114 C.3     1  UNL1        0.0316
     17 C          -4.4627  -18.9111   21.8897 C.ar    1  UNL1        0.1384
     18 C          -4.2191  -19.9076   20.7952 C.ar    1  UNL1        0.0369
     19 C          -5.3684  -20.6706   20.2062 C.ar    1  UNL1        0.0028
     20 C          -6.7613  -20.4372   20.7116 C.ar    1  UNL1       -0.0041
     21 C          -7.0049  -19.4408   21.8060 C.ar    1  UNL1       -0.0188
     22 C          -5.8556  -18.6777   22.3950 C.ar    1  UNL1        0.0326
     23 C          -2.1055  -17.8472   21.6419 C.3     1  UNL1        0.2525
     24 O          -3.3134  -18.1480   22.4786 O.3     1  UNL1       -0.4714
@<TRIPOS>BOND
     1    23    24    1
     2    24    17    1
     3    17    18   ar
     4    18    19   ar
     5    19    20   ar
     6    20    21   ar
     7    21    16    1
     8    16     1    1
     9     1     7    1
    10     7     8    2
    11     8     9    1
    12     9    10    2
    13    10    11    1
    14    11    12    2
    15    12    13    1
    16    13    14    2
    17    14    15    1
    18     1     2    1
    19     2     3    1
    20     3     4    1
    21     4     5    1
    22    21    22   ar
    23    22    17   ar
    24     5     1    1
    25    15     7    1
    26    14    10    1
    27     4     6    1
@<TRIPOS>MOLECULE
*****
 24 27 0 0 0
SMALL
GASTEIGER

@<TRIPOS>ATOM
      1 C          -7.6781  -16.0796   25.0188 C.3     1  UNL1        0.0353
      2 C          -6.3283  -15.5118   25.3438 C.3     1  UNL1        0.0225
      3 C          -6.2590  -15.3015   26.8274 C.3     1  UNL1        0.0689
      4 N          -7.5659  -15.7393   27.4193 N.3     1  UNL1       -0.2972
      5 C          -8.4430  -16.2202   26.3016 C.3     1  UNL1        0.0726
      6 H          -8.0106  -14.9543   27.8951 H       1  UNL1        0.1233
      7 C          -8.9225  -16.6427   24.3986 C.2     1  UNL1       -0.0387
      8 C          -9.5655  -17.8647   24.9842 C.2     1  UNL1       -0.0066
      9 C         -10.8099  -18.4277   24.3640 C.2     1  UNL1        0.0182
     10 C         -11.4111  -17.7686   23.1581 C.2     1  UNL1        0.0777
     11 N         -12.6232  -18.0935   22.3364 N.2     1  UNL1       -0.2442
     12 C         -12.7292  -17.0722   21.2429 C.2     1  UNL1        0.0985
     13 C         -11.5827  -16.1161   21.3888 C.2     1  UNL1        0.0182
     14 C         -10.7680  -16.5465   22.5725 C.2     1  UNL1        0.0011
     15 C          -9.5237  -15.9836   23.1927 C.3     1  UNL1        0.0499
     16 C          -7.1735  -16.0568   23.6065 C.3     1  UNL1        0.0316
     17 C          -4.0739  -18.3338   22.6276 C.ar    1  UNL1        0.1384
     18 C          -4.7707  -19.5149   22.0196 C.ar    1  UNL1        0.0369
     19 C          -6.2683  -19.5433   21.9406 C.ar    1  UNL1        0.0028
     20 C          -7.0693  -18.3906   22.4696 C.ar    1  UNL1       -0.0041
     21 C          -6.3726  -17.2095   23.0776 C.ar    1  UNL1       -0.0188
     22 C          -4.8749  -17.1812   23.1566 C.ar    1  UNL1        0.0326
     23 C          -1.7628  -18.1242   21.4596 C.3     1  UNL1        0.2525
     24 O          -2.5763  -18.3055   22.7066 O.3     1  UNL1       -0.4714
@<TRIPOS>BOND
     1    23    24    1
     2    24    17    1
     3    17    18   ar
     4    18    19   ar
     5    19    20   ar
     6    20    21   ar
     7    21    16    1
     8    16     1    1
     9     1     7    1
    10     7     8    2
    11     8     9    1
    12     9    10    2
    13    10    11    1
    14    11    12    2
    15    12    13    1
    16    13    14    2
    17    14    15    1
    18     1     2    1
    19     2     3    1
    20     3     4    1
    21     4     5    1
    22    21    22   ar
    23    22    17   ar
    24     5     1    1
    25    15     7    1
    26    14    10    1
    27     4     6    1
@<TRIPOS>MOLECULE
*****
 24 27 0 0 0
SMALL
GASTEIGER

@<TRIPOS>ATOM
      1 C          -7.7415  -19.7654   20.7428 C.3     1  UNL1        0.0353
      2 C          -9.2234  -19.7818   20.9744 C.3     1  UNL1        0.0225
      3 C          -9.8995  -19.4697   19.6723 C.3     1  UNL1        0.0689
      4 N          -8.8355  -19.2603   18.6360 N.3     1  UNL1       -0.2972
      5 C          -7.5017  -19.4431   19.2975 C.3     1  UNL1        0.0726
      6 H          -8.9057  -18.3174   18.2533 H       1  UNL1        0.1233
      7 C          -6.2442  -19.8186   20.8165 C.2     1  UNL1       -0.0387
      8 C          -5.4894  -20.8350   20.0122 C.2     1  UNL1       -0.0066
      9 C          -3.9921  -20.8883   20.0859 C.2     1  UNL1        0.0182
     10 C          -3.2497  -19.9251   20.9640 C.2     1  UNL1        0.0777
     11 N          -1.7867  -19.7395   21.2380 N.2     1  UNL1       -0.2442
     12 C          -1.6374  -18.6084   22.2118 C.2     1  UNL1        0.0985
     13 C          -3.0081  -18.0948   22.5395 C.2     1  UNL1        0.0182
     14 C          -4.0046  -18.9086   21.7683 C.2     1  UNL1        0.0011
     15 C          -5.5019  -18.8554   21.6946 C.3     1  UNL1        0.0499
     16 C          -7.6682  -20.0988   22.2034 C.3     1  UNL1        0.0316
     17 C          -9.5316  -17.3311   24.3522 C.ar    1  UNL1        0.1384
     18 C         -10.5255  -18.1722   25.0972 C.ar    1  UNL1        0.0369
     19 C         -10.5668  -19.6554   24.8776 C.ar    1  UNL1        0.0028
     20 C          -9.6144  -20.2976   23.9130 C.ar    1  UNL1       -0.0041
     21 C          -8.6206  -19.4566   23.1680 C.ar    1  UNL1       -0.0188
     22 C          -8.5793  -17.9734   23.3876 C.ar    1  UNL1        0.0326
     23 C          -8.1964  -15.1783   24.9288 C.3     1  UNL1        0.2525
     24 O          -9.4903  -15.8478   24.5718 O.3     1  UNL1       -0.4714
@<TRIPOS>BOND
     1    23    24    1
     2    24    17    1
     3    17    18   ar
     4    18    19   ar
     5    19    20   ar
     6    20    21   ar
     7    21    16    1
     8    16     1    1
     9     1     7    1
    10     7     8    2
    11     8     9    1
    12     9    10    2
    13    10    11    1
    14    11    12    2
    15    12    13    1
    16    13    14    2
    17    14    15    1
    18     1     2    1
    19     2     3    1
    20     3     4    1
    21     4     5    1
    22    21    22   ar
    23    22    17   ar
    24     5     1    1
    25    15     7    1
    26    14    10    1
    27     4     6    1
@<TRIPOS>MOLECULE
*****
 24 27 0 0 0
SMALL
GASTEIGER

@<TRIPOS>ATOM
      1 C          -7.7230  -19.3521   20.8579 C.3     1  UNL1        0.0353
      2 C          -9.2129  -19.3156   21.0271 C.3     1  UNL1        0.0225
      3 C          -9.8358  -19.3781   19.6640 C.3     1  UNL1        0.0689
      4 N          -8.7308  -19.4533   18.6523 N.3     1  UNL1       -0.2972
      5 C          -7.4250  -19.4372   19.3902 C.3     1  UNL1        0.0726
      6 H          -8.7826  -18.6523   18.0230 H       1  UNL1        0.1233
      7 C          -6.2299  -19.3717   21.0018 C.2     1  UNL1       -0.0387
      8 C          -5.6027  -19.9557   22.2328 C.2     1  UNL1       -0.0066
      9 C          -4.1097  -19.9753   22.3767 C.2     1  UNL1        0.0182
     10 C          -3.2440  -19.4109   21.2895 C.2     1  UNL1        0.0777
     11 N          -1.7551  -19.2922   21.1520 N.2     1  UNL1       -0.2442
     12 C          -1.4622  -18.6348   19.8359 C.2     1  UNL1        0.0985
     13 C          -2.7700  -18.3472   19.1601 C.2     1  UNL1        0.0182
     14 C          -3.8713  -18.8269   20.0585 C.2     1  UNL1        0.0011
     15 C          -5.3643  -18.8073   19.9146 C.3     1  UNL1        0.0499
     16 C          -7.7087  -19.2711   22.3556 C.3     1  UNL1        0.0316
     17 C          -7.4300  -15.7312   24.1281 C.ar    1  UNL1        0.1384
     18 C          -8.8742  -15.4423   24.4129 C.ar    1  UNL1        0.0369
     19 C          -9.9298  -16.4297   24.0120 C.ar    1  UNL1        0.0028
     20 C          -9.5413  -17.7060   23.3262 C.ar    1  UNL1       -0.0041
     21 C          -8.0972  -17.9949   23.0414 C.ar    1  UNL1       -0.0188
     22 C          -7.0416  -17.0075   23.4423 C.ar    1  UNL1        0.0326
     23 C          -5.3531  -15.1161   25.5626 C.3     1  UNL1        0.2525
     24 O          -6.3744  -14.7438   24.5291 O.3     1  UNL1       -0.4714
@<TRIPOS>BOND
     1    23    24    1
     2    24    17    1
     3    17    18   ar
     4    18    19   ar
     5    19    20   ar
     6    20    21   ar
     7    21    16    1
     8    16     1    1
     9     1     7    1
    10     7     8    2
    11     8     9    1
    12     9    10    2
    13    10    11    1
    14    11    12    2
    15    12    13    1
    16    13    14    2
    17    14    15    1
    18     1     2    1
    19     2     3    1
    20     3     4    1
    21     4     5    1
    22    21    22   ar
    23    22    17   ar
    24     5     1    1
    25    15     7    1
    26    14    10    1
    27     4     6    1
@<TRIPOS>MOLECULE
*****
 24 27 0 0 0
SMALL
GASTEIGER

@<TRIPOS>ATOM
      1 C          -7.4946  -15.9186   24.3464 C.3     1  UNL1        0.0353
      2 C          -6.0886  -15.6800   24.8111 C.3     1  UNL1        0.0225
      3 C          -6.1369  -15.3127   26.2647 C.3     1  UNL1        0.0689
      4 N          -7.5728  -15.3244   26.6983 N.3     1  UNL1       -0.2972
      5 C          -8.4120  -15.6989   25.5127 C.3     1  UNL1        0.0726
      6 H          -7.8407  -14.3991   27.0336 H       1  UNL1        0.1233
      7 C          -8.7645  -16.2163   23.6054 C.2     1  UNL1       -0.0387
      8 C          -8.9822  -15.6512   22.2332 C.2     1  UNL1       -0.0066
      9 C         -10.2521  -15.9488   21.4922 C.2     1  UNL1        0.0182
     10 C         -11.3042  -16.8116   22.1237 C.2     1  UNL1        0.0777
     11 N         -12.6464  -17.2741   21.6395 N.2     1  UNL1       -0.2442
     12 C         -13.2582  -18.1250   22.7126 C.2     1  UNL1        0.0985
     13 C         -12.2941  -18.1884   23.8600 C.2     1  UNL1        0.0182
     14 C         -11.0864  -17.3766   23.4960 C.2     1  UNL1        0.0011
     15 C          -9.8166  -17.0790   24.2369 C.3     1  UNL1        0.0499
     16 C          -6.8429  -16.2006   23.0252 C.3     1  UNL1        0.0316
     17 C          -4.5176  -19.3383   22.3191 C.ar    1  UNL1        0.1384
     18 C          -5.5437  -20.3866   22.0051 C.ar    1  UNL1        0.0369
     19 C          -7.0028  -20.0394   22.0312 C.ar    1  UNL1        0.0028
     20 C          -7.4358  -18.6441   22.3712 C.ar    1  UNL1       -0.0041
     21 C          -6.4098  -17.5959   22.6852 C.ar    1  UNL1       -0.0188
     22 C          -4.9508  -17.9430   22.6591 C.ar    1  UNL1        0.0326
     23 C          -2.3021  -19.6494   20.9983 C.3     1  UNL1        0.2525
     24 O          -3.0586  -19.6855   22.2930 O.3     1  UNL1       -0.4714
@<TRIPOS>BOND
     1    23    24    1
     2    24    17    1
     3    17    18   ar
     4    18    19   ar
     5    19    20   ar
     6    20    21   ar
     7    21    16    1
     8    16     1    1
     9     1     7    1
    10     7     8    2
    11     8     9    1
    12     9    10    2
    13    10    11    1
    14    11    12    2
    15    12    13    1
    16    13    14    2
    17    14    15    1
    18     1     2    1
    19     2     3    1
    20     3     4    1
    21     4     5    1
    22    21    22   ar
    23    22    17   ar
    24     5     1    1
    25    15     7    1
    26    14    10    1
    27     4     6    1
