@<TRIPOS>MOLECULE
*****
 33 36 0 0 0
SMALL
GASTEIGER

@<TRIPOS>ATOM
      1 C          -9.5355  -18.1568   21.2484 C.ar    1  UNL1        0.0949
      2 C         -10.3926  -18.4569   20.0545 C.ar    1  UNL1        0.1454
      3 F         -11.7327  -17.7990   19.9089 F       1  UNL1       -0.2040
      4 C          -9.9095  -19.4150   19.0064 C.ar    1  UNL1        0.0312
      5 C          -8.5694  -20.0729   19.1520 C.ar    1  UNL1        0.0204
      6 C          -7.7123  -19.7728   20.3459 C.ar    1  UNL1        0.0924
      7 C          -8.1954  -18.8147   21.3941 C.ar    1  UNL1        0.1598
      8 F          -7.3384  -18.5146   22.5880 F       1  UNL1       -0.2026
      9 C         -10.0186  -17.1987   22.2967 C.2     1  UNL1        0.2007
     10 O         -11.4862  -17.0753   22.5808 O.2     1  UNL1       -0.2866
     11 C          -9.3035  -17.3501   25.6037 C.2     1  UNL1        0.1360
     12 C          -8.8128  -17.2178   27.0149 C.2     1  UNL1        0.0837
     13 C          -7.7651  -16.1986   27.3521 C.2     1  UNL1        0.2385
     14 N          -7.2081  -15.3119   26.2782 N.2     1  UNL1       -0.0338
     15 C          -7.6989  -15.4443   24.8670 C.2     1  UNL1        0.3626
     16 N          -7.3388  -14.7151   23.6065 N.2     1  UNL1       -0.0341
     17 C          -8.1639  -15.2836   22.4903 C.2     1  UNL1        0.2355
     18 C          -9.0340  -16.3640   23.0608 C.2     1  UNL1        0.0823
     19 C          -8.7466  -16.4634   24.5297 C.3     1  UNL1        0.1973
     20 C          -9.9462  -19.7553   24.8608 C.3     1  UNL1        0.2520
     21 O         -10.3512  -18.3692   25.2664 O.2     1  UNL1       -0.4746
     22 N          -6.3722  -20.4307   20.4916 N.pl3   1  UNL1       -0.2128
     23 H          -6.2961  -21.4106   20.4344 H       1  UNL1        0.1738
     24 S          -5.1481  -19.5957   20.7244 S.O2    1  UNL1        0.0737
     25 O          -5.3859  -18.8849   19.4251 O.2     1  UNL1       -0.1499
     26 O          -4.9104  -20.3065   22.0237 O.2     1  UNL1       -0.1499
     27 C          -3.9240  -18.7607   20.9573 C.ar    1  UNL1        0.1274
     28 C          -3.7161  -18.0876   22.2816 C.ar    1  UNL1        0.0203
     29 C          -2.4920  -17.2526   22.5146 C.ar    1  UNL1        0.0037
     30 C          -1.4757  -17.0906   21.4233 C.ar    1  UNL1        0.0297
     31 C          -1.6836  -17.7638   20.0990 C.ar    1  UNL1        0.1415
     32 F          -0.6674  -17.6018   19.0077 F       1  UNL1       -0.2041
     33 C          -2.9077  -18.5988   19.8660 C.ar    1  UNL1        0.0498
@<TRIPOS>BOND
     1    20    21    1
     2    21    11    1
     3    11    12    2
     4    12    13    1
     5    13    14    2
     6    14    15    1
     7    15    16    2
     8    16    17    1
     9    17    18    2
    10    18     9    1
    11     9    10    2
    12     9     1    1
    13     1     2   ar
    14     2     3    1
    15     2     4   ar
    16     4     5   ar
    17     5     6   ar
    18     6    22    1
    19    22    24    1
    20    24    25    2
    21    24    26    2
    22    24    27    1
    23    27    28   ar
    24    28    29   ar
    25    29    30   ar
    26    30    31   ar
    27    31    32    1
    28    31    33   ar
    29     6     7   ar
    30     7     8    1
    31    18    19    1
    32    19    11    1
    33    19    15    1
    34     7     1   ar
    35    33    27   ar
    36    22    23    1
@<TRIPOS>MOLECULE
*****
 33 36 0 0 0
SMALL
GASTEIGER

@<TRIPOS>ATOM
      1 C          -8.8203  -18.4079   21.1407 C.ar    1  UNL1        0.0949
      2 C          -9.5478  -18.8756   19.9151 C.ar    1  UNL1        0.1454
      3 F         -10.8858  -18.2927   19.5689 F       1  UNL1       -0.2040
      4 C          -8.9373  -19.9264   19.0359 C.ar    1  UNL1        0.0312
      5 C          -7.5993  -20.5094   19.3821 C.ar    1  UNL1        0.0204
      6 C          -6.8718  -20.0416   20.6076 C.ar    1  UNL1        0.0924
      7 C          -7.4824  -18.9909   21.4869 C.ar    1  UNL1        0.1598
      8 F          -6.7549  -18.5231   22.7125 F       1  UNL1       -0.2026
      9 C          -9.4309  -17.3571   22.0201 C.2     1  UNL1        0.2007
     10 O          -9.7931  -16.0186   21.4483 O.2     1  UNL1       -0.2866
     11 C          -7.8450  -16.0187   24.6966 C.2     1  UNL1        0.1360
     12 C          -7.3074  -15.5828   26.0273 C.2     1  UNL1        0.0837
     13 C          -7.8770  -16.1567   27.2908 C.2     1  UNL1        0.2385
     14 N          -8.9841  -17.1665   27.2234 N.2     1  UNL1       -0.0338
     15 C          -9.5216  -17.6024   25.8926 C.2     1  UNL1        0.3626
     16 N         -10.6007  -18.5736   25.5153 N.2     1  UNL1       -0.0341
     17 C         -10.6981  -18.5999   24.0187 C.2     1  UNL1        0.2355
     18 C          -9.6792  -17.6450   23.4711 C.2     1  UNL1        0.0823
     19 C          -8.9521  -17.0285   24.6292 C.3     1  UNL1        0.1973
     20 C          -5.7997  -15.2016   23.3184 C.3     1  UNL1        0.2520
     21 O          -7.2754  -15.4448   23.4332 O.2     1  UNL1       -0.4746
     22 N          -5.5338  -20.6246   20.9539 N.pl3   1  UNL1       -0.2128
     23 H          -5.4786  -21.5053   21.3904 H       1  UNL1        0.1738
     24 S          -4.2799  -19.8657   20.6350 S.O2    1  UNL1        0.0737
     25 O          -4.3576  -20.3350   19.2124 O.2     1  UNL1       -0.1499
     26 O          -4.2021  -19.3965   22.0576 O.2     1  UNL1       -0.1499
     27 C          -3.0259  -19.1068   20.3162 C.ar    1  UNL1        0.1274
     28 C          -2.0634  -18.7546   21.4115 C.ar    1  UNL1        0.0203
     29 C          -0.8095  -17.9957   21.0928 C.ar    1  UNL1        0.0037
     30 C          -0.5179  -17.5890   19.6788 C.ar    1  UNL1        0.0297
     31 C          -1.4804  -17.9412   18.5835 C.ar    1  UNL1        0.1415
     32 F          -1.1888  -17.5345   17.1694 F       1  UNL1       -0.2041
     33 C          -2.7343  -18.7001   18.9022 C.ar    1  UNL1        0.0498
@<TRIPOS>BOND
     1    20    21    1
     2    21    11    1
     3    11    12    2
     4    12    13    1
     5    13    14    2
     6    14    15    1
     7    15    16    2
     8    16    17    1
     9    17    18    2
    10    18     9    1
    11     9    10    2
    12     9     1    1
    13     1     2   ar
    14     2     3    1
    15     2     4   ar
    16     4     5   ar
    17     5     6   ar
    18     6    22    1
    19    22    24    1
    20    24    25    2
    21    24    26    2
    22    24    27    1
    23    27    28   ar
    24    28    29   ar
    25    29    30   ar
    26    30    31   ar
    27    31    32    1
    28    31    33   ar
    29     6     7   ar
    30     7     8    1
    31    18    19    1
    32    19    11    1
    33    19    15    1
    34     7     1   ar
    35    33    27   ar
    36    22    23    1
@<TRIPOS>MOLECULE
*****
 33 36 0 0 0
SMALL
GASTEIGER

@<TRIPOS>ATOM
      1 C           5.2338   -3.2037   22.9304 C.ar    1  UNL1        0.0949
      2 C           4.3723   -2.0983   23.4653 C.ar    1  UNL1        0.1454
      3 F           3.3551   -1.4440   22.5780 F       1  UNL1       -0.2040
      4 C           4.5280   -1.6474   24.8873 C.ar    1  UNL1        0.0312
      5 C           5.5451   -2.3017   25.7746 C.ar    1  UNL1        0.0204
      6 C           6.4066   -3.4071   25.2398 C.ar    1  UNL1        0.0924
      7 C           6.2510   -3.8580   23.8177 C.ar    1  UNL1        0.1598
      8 F           7.1125   -4.9633   23.2828 F       1  UNL1       -0.2026
      9 C           5.0782   -3.6547   21.5083 C.2     1  UNL1        0.2007
     10 O           4.0779   -4.7180   21.1640 O.2     1  UNL1       -0.2866
     11 C           4.0719   -1.6190   18.9956 C.2     1  UNL1        0.1360
     12 C           3.8864   -0.7181   17.8107 C.2     1  UNL1        0.0837
     13 C           5.0653   -0.3415   16.9631 C.2     1  UNL1        0.2385
     14 N           6.4296   -0.8658   17.3003 N.2     1  UNL1       -0.0338
     15 C           6.6150   -1.7667   18.4852 C.2     1  UNL1        0.3626
     16 N           7.8302   -2.4330   19.0590 N.2     1  UNL1       -0.0341
     17 C           7.4025   -3.2213   20.2613 C.2     1  UNL1        0.2355
     18 C           5.9229   -3.0423   20.4305 C.2     1  UNL1        0.0823
     19 C           5.4362   -2.1433   19.3328 C.3     1  UNL1        0.1973
     20 C           1.7319   -1.0550   19.9735 C.3     1  UNL1        0.2520
     21 O           2.8930   -1.9956   19.8433 O.2     1  UNL1       -0.4746
     22 N           7.4238   -4.0614   26.1271 N.pl3   1  UNL1       -0.2128
     23 H           8.2223   -4.4819   25.7337 H       1  UNL1        0.1738
     24 S           7.2242   -4.0750   27.6137 S.O2    1  UNL1        0.0737
     25 O           8.1547   -2.9063   27.7492 O.2     1  UNL1       -0.1499
     26 O           6.2938   -5.2437   27.4781 O.2     1  UNL1       -0.1499
     27 C           7.0247   -4.0887   29.1002 C.ar    1  UNL1        0.1274
     28 C           6.5959   -2.8392   29.8109 C.ar    1  UNL1        0.0203
     29 C           6.3963   -2.8528   31.2975 C.ar    1  UNL1        0.0037
     30 C           6.6254   -4.1158   32.0735 C.ar    1  UNL1        0.0297
     31 C           7.0542   -5.3653   31.3628 C.ar    1  UNL1        0.1415
     32 F           7.2833   -6.6284   32.1387 F       1  UNL1       -0.2041
     33 C           7.2538   -5.3517   29.8762 C.ar    1  UNL1        0.0498
@<TRIPOS>BOND
     1    20    21    1
     2    21    11    1
     3    11    12    2
     4    12    13    1
     5    13    14    2
     6    14    15    1
     7    15    16    2
     8    16    17    1
     9    17    18    2
    10    18     9    1
    11     9    10    2
    12     9     1    1
    13     1     2   ar
    14     2     3    1
    15     2     4   ar
    16     4     5   ar
    17     5     6   ar
    18     6    22    1
    19    22    24    1
    20    24    25    2
    21    24    26    2
    22    24    27    1
    23    27    28   ar
    24    28    29   ar
    25    29    30   ar
    26    30    31   ar
    27    31    32    1
    28    31    33   ar
    29     6     7   ar
    30     7     8    1
    31    18    19    1
    32    19    11    1
    33    19    15    1
    34     7     1   ar
    35    33    27   ar
    36    22    23    1
@<TRIPOS>MOLECULE
*****
 33 36 0 0 0
SMALL
GASTEIGER

@<TRIPOS>ATOM
      1 C           7.2295   -3.3089   30.4526 C.ar    1  UNL1        0.0949
      2 C           8.1953   -4.1651   31.2169 C.ar    1  UNL1        0.1454
      3 F           8.8954   -3.6127   32.4230 F       1  UNL1       -0.2040
      4 C           8.4610   -5.5737   30.7750 C.ar    1  UNL1        0.0312
      5 C           7.7610   -6.1261   29.5689 C.ar    1  UNL1        0.0204
      6 C           6.7952   -5.2699   28.8046 C.ar    1  UNL1        0.0924
      7 C           6.5295   -3.8614   29.2464 C.ar    1  UNL1        0.1598
      8 F           5.5637   -3.0051   28.4822 F       1  UNL1       -0.2026
      9 C           6.9637   -1.9003   30.8944 C.2     1  UNL1        0.2007
     10 O           8.0417   -0.8633   30.7826 O.2     1  UNL1       -0.2866
     11 C           4.6582    0.1654   29.5204 C.2     1  UNL1        0.1360
     12 C           3.4907    1.0230   29.1314 C.2     1  UNL1        0.0837
     13 C           2.2908    1.1078   30.0276 C.2     1  UNL1        0.2385
     14 N           2.2585    0.3350   31.3128 N.2     1  UNL1       -0.0338
     15 C           3.4260   -0.5226   31.7018 C.2     1  UNL1        0.3626
     16 N           3.6787   -1.3916   32.8980 N.2     1  UNL1       -0.0341
     17 C           5.0346   -2.0135   32.7412 C.2     1  UNL1        0.2355
     18 C           5.6200   -1.5288   31.4480 C.2     1  UNL1        0.0823
     19 C           4.6259   -0.6073   30.8056 C.3     1  UNL1        0.1973
     20 C           5.6824    0.0709   27.1347 C.3     1  UNL1        0.2520
     21 O           5.8581    0.0807   28.6243 O.2     1  UNL1       -0.4746
     22 N           6.0951   -5.8224   27.5984 N.pl3   1  UNL1       -0.2128
     23 H           5.1525   -6.0995   27.6603 H       1  UNL1        0.1738
     24 S           6.8313   -5.9525   26.2980 S.O2    1  UNL1        0.0737
     25 O           6.9073   -7.4382   26.4897 O.2     1  UNL1       -0.1499
     26 O           6.7554   -4.4667   26.1064 O.2     1  UNL1       -0.1499
     27 C           7.5675   -6.0825   24.9976 C.ar    1  UNL1        0.1274
     28 C           8.3021   -7.3499   24.6751 C.ar    1  UNL1        0.0203
     29 C           9.0383   -7.4801   23.3747 C.ar    1  UNL1        0.0037
     30 C           9.0400   -6.3427   22.3968 C.ar    1  UNL1        0.0297
     31 C           8.3054   -5.0752   22.7193 C.ar    1  UNL1        0.1415
     32 F           8.3071   -3.9378   21.7414 F       1  UNL1       -0.2041
     33 C           7.5692   -4.9451   24.0197 C.ar    1  UNL1        0.0498
@<TRIPOS>BOND
     1    20    21    1
     2    21    11    1
     3    11    12    2
     4    12    13    1
     5    13    14    2
     6    14    15    1
     7    15    16    2
     8    16    17    1
     9    17    18    2
    10    18     9    1
    11     9    10    2
    12     9     1    1
    13     1     2   ar
    14     2     3    1
    15     2     4   ar
    16     4     5   ar
    17     5     6   ar
    18     6    22    1
    19    22    24    1
    20    24    25    2
    21    24    26    2
    22    24    27    1
    23    27    28   ar
    24    28    29   ar
    25    29    30   ar
    26    30    31   ar
    27    31    32    1
    28    31    33   ar
    29     6     7   ar
    30     7     8    1
    31    18    19    1
    32    19    11    1
    33    19    15    1
    34     7     1   ar
    35    33    27   ar
    36    22    23    1
@<TRIPOS>MOLECULE
*****
 33 36 0 0 0
SMALL
GASTEIGER

@<TRIPOS>ATOM
      1 C           7.9660   -4.9069   23.6031 C.ar    1  UNL1        0.0949
      2 C           8.7590   -5.9653   22.8952 C.ar    1  UNL1        0.1454
      3 F           9.3679   -5.6759   21.5553 F       1  UNL1       -0.2040
      4 C           8.9431   -7.3130   23.5274 C.ar    1  UNL1        0.0312
      5 C           8.3342   -7.6024   24.8674 C.ar    1  UNL1        0.0204
      6 C           7.5412   -6.5440   25.5752 C.ar    1  UNL1        0.0924
      7 C           7.3571   -5.1963   24.9430 C.ar    1  UNL1        0.1598
      8 F           6.5641   -4.1379   25.6508 F       1  UNL1       -0.2026
      9 C           7.7819   -3.5591   22.9709 C.2     1  UNL1        0.2007
     10 O           8.6074   -2.3950   23.4328 O.2     1  UNL1       -0.2866
     11 C           4.8937   -1.7947   23.0948 C.2     1  UNL1        0.1360
     12 C           3.5836   -1.0925   22.8934 C.2     1  UNL1        0.0837
     13 C           2.8818   -1.1791   21.5705 C.2     1  UNL1        0.2385
     14 N           3.4901   -1.9679   20.4490 N.2     1  UNL1       -0.0338
     15 C           4.8002   -2.6701   20.6505 C.2     1  UNL1        0.3626
     16 N           5.6367   -3.5155   19.7365 N.2     1  UNL1       -0.0341
     17 C           6.8555   -3.9515   20.4944 C.2     1  UNL1        0.2355
     18 C           6.7722   -3.3754   21.8769 C.2     1  UNL1        0.0823
     19 C           5.5020   -2.5835   21.9733 C.3     1  UNL1        0.1973
     20 C           6.0509   -0.3775   24.9394 C.3     1  UNL1        0.2520
     21 O           5.5954   -1.7081   24.4177 O.2     1  UNL1       -0.4746
     22 N           6.9324   -6.8334   26.9152 N.pl3   1  UNL1       -0.2128
     23 H           6.2737   -7.5590   27.0103 H       1  UNL1        0.1738
     24 S           7.3270   -6.0174   28.1103 S.O2    1  UNL1        0.0737
     25 O           8.7173   -6.5751   28.0320 O.2     1  UNL1       -0.1499
     26 O           5.9368   -5.4597   28.1886 O.2     1  UNL1       -0.1499
     27 C           7.7216   -5.2014   29.3054 C.ar    1  UNL1        0.1274
     28 C           9.0480   -4.5014   29.3309 C.ar    1  UNL1        0.0203
     29 C           9.4427   -3.6853   30.5260 C.ar    1  UNL1        0.0037
     30 C           8.5109   -3.5691   31.6957 C.ar    1  UNL1        0.0297
     31 C           7.1844   -4.2691   31.6702 C.ar    1  UNL1        0.1415
     32 F           6.2526   -4.1529   32.8399 F       1  UNL1       -0.2041
     33 C           6.7897   -5.0852   30.4751 C.ar    1  UNL1        0.0498
@<TRIPOS>BOND
     1    20    21    1
     2    21    11    1
     3    11    12    2
     4    12    13    1
     5    13    14    2
     6    14    15    1
     7    15    16    2
     8    16    17    1
     9    17    18    2
    10    18     9    1
    11     9    10    2
    12     9     1    1
    13     1     2   ar
    14     2     3    1
    15     2     4   ar
    16     4     5   ar
    17     5     6   ar
    18     6    22    1
    19    22    24    1
    20    24    25    2
    21    24    26    2
    22    24    27    1
    23    27    28   ar
    24    28    29   ar
    25    29    30   ar
    26    30    31   ar
    27    31    32    1
    28    31    33   ar
    29     6     7   ar
    30     7     8    1
    31    18    19    1
    32    19    11    1
    33    19    15    1
    34     7     1   ar
    35    33    27   ar
    36    22    23    1
@<TRIPOS>MOLECULE
*****
 33 36 0 0 0
SMALL
GASTEIGER

@<TRIPOS>ATOM
      1 C           2.9196   -0.8940   21.7037 C.ar    1  UNL1        0.0949
      2 C           3.7273   -1.8961   22.4740 C.ar    1  UNL1        0.1454
      3 F           4.2372   -3.1314   21.7929 F       1  UNL1       -0.2040
      4 C           4.0250   -1.6628   23.9255 C.ar    1  UNL1        0.0312
      5 C           3.5151   -0.4275   24.6067 C.ar    1  UNL1        0.0204
      6 C           2.7074    0.5746   23.8363 C.ar    1  UNL1        0.0924
      7 C           2.4096    0.3413   22.3848 C.ar    1  UNL1        0.1598
      8 F           1.6019    1.3433   21.6144 F       1  UNL1       -0.2026
      9 C           2.6218   -1.1273   20.2521 C.2     1  UNL1        0.2007
     10 O           1.2100   -1.0406   19.7528 O.2     1  UNL1       -0.2866
     11 C           4.6432    1.0492   18.6252 C.2     1  UNL1        0.1360
     12 C           5.6524    1.7916   17.8004 C.2     1  UNL1        0.0837
     13 C           6.6281    1.0347   16.9489 C.2     1  UNL1        0.2385
     14 N           6.5947   -0.4647   16.9223 N.2     1  UNL1       -0.0338
     15 C           5.5855   -1.2071   17.7471 C.2     1  UNL1        0.3626
     16 N           5.3145   -2.6720   17.9223 N.2     1  UNL1       -0.0341
     17 C           4.1713   -2.8204   18.8820 C.2     1  UNL1        0.2355
     18 C           3.7358   -1.4472   19.2999 C.2     1  UNL1        0.0823
     19 C           4.6098   -0.4502   18.5985 C.3     1  UNL1        0.1973
     20 C           2.7568    2.8212   18.8519 C.3     1  UNL1        0.2520
     21 O           3.6675    1.8061   19.4766 O.2     1  UNL1       -0.4746
     22 N           2.1975    1.8099   24.5175 N.pl3   1  UNL1       -0.2128
     23 H           2.2436    2.6797   24.0586 H       1  UNL1        0.1738
     24 S           1.6172    1.7199   25.8978 S.O2    1  UNL1        0.0737
     25 O           0.4025    1.0371   25.3426 O.2     1  UNL1       -0.1499
     26 O           2.8319    2.4028   26.4529 O.2     1  UNL1       -0.1499
     27 C           1.0371    1.6300   27.2781 C.ar    1  UNL1        0.1274
     28 C           1.6984    2.3469   28.4178 C.ar    1  UNL1        0.0203
     29 C           1.1183    2.2570   29.7981 C.ar    1  UNL1        0.0037
     30 C          -0.1232    1.4503   30.0389 C.ar    1  UNL1        0.0297
     31 C          -0.7845    0.7334   28.8992 C.ar    1  UNL1        0.1415
     32 F          -2.0259   -0.0733   29.1399 F       1  UNL1       -0.2041
     33 C          -0.2044    0.8233   27.5188 C.ar    1  UNL1        0.0498
@<TRIPOS>BOND
     1    20    21    1
     2    21    11    1
     3    11    12    2
     4    12    13    1
     5    13    14    2
     6    14    15    1
     7    15    16    2
     8    16    17    1
     9    17    18    2
    10    18     9    1
    11     9    10    2
    12     9     1    1
    13     1     2   ar
    14     2     3    1
    15     2     4   ar
    16     4     5   ar
    17     5     6   ar
    18     6    22    1
    19    22    24    1
    20    24    25    2
    21    24    26    2
    22    24    27    1
    23    27    28   ar
    24    28    29   ar
    25    29    30   ar
    26    30    31   ar
    27    31    32    1
    28    31    33   ar
    29     6     7   ar
    30     7     8    1
    31    18    19    1
    32    19    11    1
    33    19    15    1
    34     7     1   ar
    35    33    27   ar
    36    22    23    1
@<TRIPOS>MOLECULE
*****
 33 36 0 0 0
SMALL
GASTEIGER

@<TRIPOS>ATOM
      1 C           5.1376   -3.0616   21.4317 C.ar    1  UNL1        0.0949
      2 C           4.3723   -2.5090   22.5975 C.ar    1  UNL1        0.1454
      3 F           3.0682   -1.8031   22.3718 F       1  UNL1       -0.2040
      4 C           4.9113   -2.6622   23.9889 C.ar    1  UNL1        0.0312
      5 C           6.2154   -3.3681   24.2146 C.ar    1  UNL1        0.0204
      6 C           6.9807   -3.9207   23.0488 C.ar    1  UNL1        0.0924
      7 C           6.4417   -3.7675   21.6574 C.ar    1  UNL1        0.1598
      8 F           7.2070   -4.3201   20.4916 F       1  UNL1       -0.2026
      9 C           4.5987   -2.9084   20.0402 C.2     1  UNL1        0.2007
     10 O           3.3693   -3.6607   19.6251 O.2     1  UNL1       -0.2866
     11 C           3.8408    0.3107   19.3099 C.2     1  UNL1        0.1360
     12 C           3.7134    1.7210   18.8154 C.2     1  UNL1        0.0837
     13 C           4.6660    2.2418   17.7803 C.2     1  UNL1        0.2385
     14 N           5.7459    1.3521   17.2397 N.2     1  UNL1       -0.0338
     15 C           5.8733   -0.0582   17.7343 C.2     1  UNL1        0.3626
     16 N           6.8306   -1.1603   17.3892 N.2     1  UNL1       -0.0341
     17 C           6.4696   -2.3621   18.2110 C.2     1  UNL1        0.2355
     18 C           5.2893   -2.0028   19.0640 C.2     1  UNL1        0.0823
     19 C           4.9207   -0.5790   18.7694 C.3     1  UNL1        0.1973
     20 C           1.4749   -0.5396   19.9655 C.3     1  UNL1        0.2520
     21 O           2.8882   -0.2100   20.3450 O.2     1  UNL1       -0.4746
     22 N           8.2848   -4.6266   23.2745 N.pl3   1  UNL1       -0.2128
     23 H           9.0329   -4.4906   22.6490 H       1  UNL1        0.1738
     24 S           8.4493   -5.5397   24.4531 S.O2    1  UNL1        0.0737
     25 O           7.7197   -6.6230   23.7157 O.2     1  UNL1       -0.1499
     26 O           9.1789   -4.4563   25.1906 O.2     1  UNL1       -0.1499
     27 C           8.6137   -6.4527   25.6318 C.ar    1  UNL1        0.1274
     28 C           9.3706   -7.7393   25.4841 C.ar    1  UNL1        0.0203
     29 C           9.5352   -8.6523   26.6627 C.ar    1  UNL1        0.0037
     30 C           8.9428   -8.2788   27.9892 C.ar    1  UNL1        0.0297
     31 C           8.1859   -6.9922   28.1370 C.ar    1  UNL1        0.1415
     32 F           7.5936   -6.6187   29.4634 F       1  UNL1       -0.2041
     33 C           8.0214   -6.0791   26.9583 C.ar    1  UNL1        0.0498
@<TRIPOS>BOND
     1    20    21    1
     2    21    11    1
     3    11    12    2
     4    12    13    1
     5    13    14    2
     6    14    15    1
     7    15    16    2
     8    16    17    1
     9    17    18    2
    10    18     9    1
    11     9    10    2
    12     9     1    1
    13     1     2   ar
    14     2     3    1
    15     2     4   ar
    16     4     5   ar
    17     5     6   ar
    18     6    22    1
    19    22    24    1
    20    24    25    2
    21    24    26    2
    22    24    27    1
    23    27    28   ar
    24    28    29   ar
    25    29    30   ar
    26    30    31   ar
    27    31    32    1
    28    31    33   ar
    29     6     7   ar
    30     7     8    1
    31    18    19    1
    32    19    11    1
    33    19    15    1
    34     7     1   ar
    35    33    27   ar
    36    22    23    1
@<TRIPOS>MOLECULE
*****
 33 36 0 0 0
SMALL
GASTEIGER

@<TRIPOS>ATOM
      1 C           5.7635   -0.8706   33.7450 C.ar    1  UNL1        0.0949
      2 C           7.2379   -0.7071   33.9672 C.ar    1  UNL1        0.1454
      3 F           8.1820   -1.8037   33.5724 F       1  UNL1       -0.2040
      4 C           7.7680    0.5530   34.5844 C.ar    1  UNL1        0.0312
      5 C           6.8239    1.6497   34.9793 C.ar    1  UNL1        0.0204
      6 C           5.3494    1.4862   34.7570 C.ar    1  UNL1        0.0924
      7 C           4.8193    0.2260   34.1398 C.ar    1  UNL1        0.1598
      8 F           3.3449    0.0624   33.9175 F       1  UNL1       -0.2026
      9 C           5.2332   -2.1308   33.1278 C.2     1  UNL1        0.2007
     10 O           4.0242   -2.8003   33.7108 O.2     1  UNL1       -0.2866
     11 C           5.0087   -1.1034   29.9084 C.2     1  UNL1        0.1360
     12 C           5.0784   -0.8525   28.4312 C.2     1  UNL1        0.0837
     13 C           5.9247   -1.7327   27.5601 C.2     1  UNL1        0.2385
     14 N           6.7014   -2.8638   28.1661 N.2     1  UNL1       -0.0338
     15 C           6.6317   -3.1147   29.6433 C.2     1  UNL1        0.3626
     16 N           7.2814   -4.1456   30.5181 N.2     1  UNL1       -0.0341
     17 C           6.8367   -3.9025   31.9298 C.2     1  UNL1        0.2355
     18 C           5.9120   -2.7214   31.9276 C.2     1  UNL1        0.0823
     19 C           5.7854   -2.2345   30.5145 C.3     1  UNL1        0.1973
     20 C           2.6667   -0.3065   30.7021 C.3     1  UNL1        0.2520
     21 O           4.1623   -0.2232   30.7796 O.2     1  UNL1       -0.4746
     22 N           4.4053    2.5828   35.1519 N.pl3   1  UNL1       -0.2128
     23 H           4.4192    3.4414   34.6704 H       1  UNL1        0.1738
     24 S           3.4399    2.3712   36.2803 S.O2    1  UNL1        0.0737
     25 O           2.2920    2.5260   35.3273 O.2     1  UNL1       -0.1499
     26 O           4.5879    2.2163   37.2333 O.2     1  UNL1       -0.1499
     27 C           2.4747    2.1595   37.4087 C.ar    1  UNL1        0.1274
     28 C           1.5773    3.2784   37.8479 C.ar    1  UNL1        0.0203
     29 C           0.6120    3.0669   38.9763 C.ar    1  UNL1        0.0037
     30 C           0.5440    1.7364   39.6657 C.ar    1  UNL1        0.0297
     31 C           1.4415    0.6175   39.2266 C.ar    1  UNL1        0.1415
     32 F           1.3735   -0.7129   39.9159 F       1  UNL1       -0.2041
     33 C           2.4068    0.8291   38.0981 C.ar    1  UNL1        0.0498
@<TRIPOS>BOND
     1    20    21    1
     2    21    11    1
     3    11    12    2
     4    12    13    1
     5    13    14    2
     6    14    15    1
     7    15    16    2
     8    16    17    1
     9    17    18    2
    10    18     9    1
    11     9    10    2
    12     9     1    1
    13     1     2   ar
    14     2     3    1
    15     2     4   ar
    16     4     5   ar
    17     5     6   ar
    18     6    22    1
    19    22    24    1
    20    24    25    2
    21    24    26    2
    22    24    27    1
    23    27    28   ar
    24    28    29   ar
    25    29    30   ar
    26    30    31   ar
    27    31    32    1
    28    31    33   ar
    29     6     7   ar
    30     7     8    1
    31    18    19    1
    32    19    11    1
    33    19    15    1
    34     7     1   ar
    35    33    27   ar
    36    22    23    1
@<TRIPOS>MOLECULE
*****
 33 36 0 0 0
SMALL
GASTEIGER

@<TRIPOS>ATOM
      1 C           5.0185   -2.3570   19.6744 C.ar    1  UNL1        0.0949
      2 C           6.3613   -2.1830   19.0289 C.ar    1  UNL1        0.1454
      3 F           7.5111   -3.0526   19.4435 F       1  UNL1       -0.2040
      4 C           6.5543   -1.1394   17.9690 C.ar    1  UNL1        0.0312
      5 C           5.4045   -0.2698   17.5544 C.ar    1  UNL1        0.0204
      6 C           4.0617   -0.4438   18.1998 C.ar    1  UNL1        0.0924
      7 C           3.8688   -1.4874   19.2598 C.ar    1  UNL1        0.1598
      8 F           2.5259   -1.6614   19.9053 F       1  UNL1       -0.2026
      9 C           4.8254   -3.4006   20.7344 C.2     1  UNL1        0.2007
     10 O           4.5320   -4.8192   20.3455 O.2     1  UNL1       -0.2866
     11 C           7.1452   -4.4218   22.9808 C.2     1  UNL1        0.1360
     12 C           8.0365   -4.7191   24.1500 C.2     1  UNL1        0.0837
     13 C           7.7549   -4.0964   25.4853 C.2     1  UNL1        0.2385
     14 N           6.5819   -3.1762   25.6513 N.2     1  UNL1       -0.0338
     15 C           5.6907   -2.8789   24.4820 C.2     1  UNL1        0.3626
     16 N           4.4702   -2.0179   24.3437 N.2     1  UNL1       -0.0341
     17 C           3.9975   -2.1085   22.9230 C.2     1  UNL1        0.2355
     18 C           4.9259   -3.0255   22.1833 C.2     1  UNL1        0.0823
     19 C           5.9723   -3.5016   23.1468 C.3     1  UNL1        0.1973
     20 C           8.8275   -5.4404   21.2831 C.3     1  UNL1        0.2520
     21 O           7.4268   -5.0445   21.6456 O.2     1  UNL1       -0.4746
     22 N           2.9120    0.4258   17.7853 N.pl3   1  UNL1       -0.2128
     23 H           2.7252    0.5725   16.8299 H       1  UNL1        0.1738
     24 S           2.0468    1.0719   18.8264 S.O2    1  UNL1        0.0737
     25 O           3.2563    1.7267   19.4251 O.2     1  UNL1       -0.1499
     26 O           0.8374    0.4172   18.2277 O.2     1  UNL1       -0.1499
     27 C           1.1816    1.7180   19.8675 C.ar    1  UNL1        0.1274
     28 C           0.3058    2.8790   19.4998 C.ar    1  UNL1        0.0203
     29 C          -0.5595    3.5251   20.5409 C.ar    1  UNL1        0.0037
     30 C          -0.5490    3.0103   21.9497 C.ar    1  UNL1        0.0297
     31 C           0.3268    1.8493   22.3174 C.ar    1  UNL1        0.1415
     32 F           0.3373    1.3345   23.7263 F       1  UNL1       -0.2041
     33 C           1.1921    1.2032   21.2764 C.ar    1  UNL1        0.0498
@<TRIPOS>BOND
     1    20    21    1
     2    21    11    1
     3    11    12    2
     4    12    13    1
     5    13    14    2
     6    14    15    1
     7    15    16    2
     8    16    17    1
     9    17    18    2
    10    18     9    1
    11     9    10    2
    12     9     1    1
    13     1     2   ar
    14     2     3    1
    15     2     4   ar
    16     4     5   ar
    17     5     6   ar
    18     6    22    1
    19    22    24    1
    20    24    25    2
    21    24    26    2
    22    24    27    1
    23    27    28   ar
    24    28    29   ar
    25    29    30   ar
    26    30    31   ar
    27    31    32    1
    28    31    33   ar
    29     6     7   ar
    30     7     8    1
    31    18    19    1
    32    19    11    1
    33    19    15    1
    34     7     1   ar
    35    33    27   ar
    36    22    23    1
