@<TRIPOS>MOLECULE
*****
 21 23 0 0 0
SMALL
GASTEIGER

@<TRIPOS>ATOM
      1 C          -7.9816  -18.9351   21.8093 C.ar    1  UNL1        0.0008
      2 C          -8.5919  -19.3363   20.4991 C.ar    1  UNL1        0.0064
      3 S          -7.4774  -19.6418   19.5429 S.2     1  UNL1       -0.0915
      4 C          -6.1782  -19.4295   20.2620 C.ar    1  UNL1        0.0289
      5 C          -4.7518  -19.5774   19.8224 C.ar    1  UNL1        0.0065
      6 C          -3.6370  -19.2886   20.7835 C.ar    1  UNL1        0.0005
      7 C          -3.9486  -18.8518   22.1842 C.ar    1  UNL1        0.0000
      8 C          -5.3751  -18.7039   22.6239 C.ar    1  UNL1        0.0002
      9 C          -6.4899  -18.9927   21.6628 C.ar    1  UNL1        0.0039
     10 C          -9.7138  -19.4981   23.6621 C.3     1  UNL1        0.0295
     11 C          -8.7313  -18.5449   23.0485 C.3     1  UNL1        0.1097
     12 N          -8.4988  -17.2016   23.6741 N.ar    1  UNL1       -0.3058
     13 C          -8.9451  -16.7767   25.0416 C.ar    1  UNL1        0.0982
     14 C          -8.5012  -15.3598   25.2547 C.ar    1  UNL1        0.1193
     15 N          -7.7805  -14.9090   24.0189 N.ar    1  UNL1       -0.2223
     16 C          -7.7790  -16.0474   23.0419 C.ar    1  UNL1        0.1788
     17 C         -10.0591  -19.4176   20.1981 C.3     1  UNL1        0.0500
     18 C         -10.8094  -18.1862   19.7852 C.3     1  UNL1        0.0774
     19 N         -11.4353  -17.3052   20.8254 N.3     1  UNL1       -0.2700
     20 C         -10.8567  -15.9503   21.1075 C.3     1  UNL1        0.0897
     21 C         -12.6398  -17.7790   21.5835 C.3     1  UNL1        0.0897
@<TRIPOS>BOND
     1    10    11    1
     2    11     1    1
     3     1     2   ar
     4     2    17    1
     5    17    18    1
     6    18    19    1
     7    19    20    1
     8    19    21    1
     9     2     3   ar
    10     3     4   ar
    11     4     5   ar
    12     5     6   ar
    13     6     7   ar
    14     7     8   ar
    15     8     9   ar
    16    11    12    1
    17    12    13   ar
    18    13    14   ar
    19    14    15   ar
    20    15    16   ar
    21     9     1   ar
    22    16    12   ar
    23     9     4   ar
@<TRIPOS>MOLECULE
*****
 21 23 0 0 0
SMALL
GASTEIGER

@<TRIPOS>ATOM
      1 C          -8.6618  -17.2099   24.0113 C.ar    1  UNL1        0.0008
      2 C          -7.6083  -17.1344   22.9463 C.ar    1  UNL1        0.0064
      3 S          -6.4546  -16.3453   23.4907 S.2     1  UNL1       -0.0915
      4 C          -6.7951  -15.9331   24.8922 C.ar    1  UNL1        0.0289
      5 C          -6.0393  -15.1403   25.9169 C.ar    1  UNL1        0.0065
      6 C          -6.6476  -14.8818   27.2634 C.ar    1  UNL1        0.0005
      7 C          -8.0117  -15.4162   27.5852 C.ar    1  UNL1        0.0000
      8 C          -8.7676  -16.2091   26.5605 C.ar    1  UNL1        0.0002
      9 C          -8.1592  -16.4675   25.2140 C.ar    1  UNL1        0.0039
     10 C         -10.3691  -18.9602   24.8899 C.3     1  UNL1        0.0295
     11 C          -9.9855  -17.9057   23.8943 C.3     1  UNL1        0.1097
     12 N         -10.9256  -17.5472   22.7820 N.ar    1  UNL1       -0.3058
     13 C         -11.4728  -16.1801   22.4961 C.ar    1  UNL1        0.0982
     14 C         -12.3690  -16.2808   21.2975 C.ar    1  UNL1        0.1193
     15 N         -12.3757  -17.7101   20.8425 N.ar    1  UNL1       -0.2223
     16 C         -11.4836  -18.4928   21.7600 C.ar    1  UNL1        0.1788
     17 C          -7.6934  -17.7414   21.5772 C.3     1  UNL1        0.0500
     18 C          -7.0280  -19.0561   21.2970 C.3     1  UNL1        0.0774
     19 N          -5.5382  -19.1233   21.1353 N.3     1  UNL1       -0.2700
     20 C          -4.9225  -18.9506   19.7784 C.3     1  UNL1        0.0897
     21 C          -4.6642  -19.3632   22.3305 C.3     1  UNL1        0.0897
@<TRIPOS>BOND
     1    10    11    1
     2    11     1    1
     3     1     2   ar
     4     2    17    1
     5    17    18    1
     6    18    19    1
     7    19    20    1
     8    19    21    1
     9     2     3   ar
    10     3     4   ar
    11     4     5   ar
    12     5     6   ar
    13     6     7   ar
    14     7     8   ar
    15     8     9   ar
    16    11    12    1
    17    12    13   ar
    18    13    14   ar
    19    14    15   ar
    20    15    16   ar
    21     9     1   ar
    22    16    12   ar
    23     9     4   ar
@<TRIPOS>MOLECULE
*****
 21 23 0 0 0
SMALL
GASTEIGER

@<TRIPOS>ATOM
      1 C          -8.3268  -18.4293   22.4322 C.ar    1  UNL1        0.0008
      2 C          -7.8075  -17.2805   23.2449 C.ar    1  UNL1        0.0064
      3 S          -6.3144  -17.2507   23.1041 S.2     1  UNL1       -0.0915
      4 C          -5.9110  -18.3811   22.2044 C.ar    1  UNL1        0.0289
      5 C          -4.5718  -18.8412   21.7096 C.ar    1  UNL1        0.0065
      6 C          -4.4764  -20.0297   20.7996 C.ar    1  UNL1        0.0005
      7 C          -5.7201  -20.7582   20.3843 C.ar    1  UNL1        0.0000
      8 C          -7.0593  -20.2981   20.8791 C.ar    1  UNL1        0.0002
      9 C          -7.1547  -19.1095   21.7891 C.ar    1  UNL1        0.0039
     10 C         -10.2666  -20.0799   22.9452 C.3     1  UNL1        0.0295
     11 C          -9.7657  -18.8280   22.2879 C.3     1  UNL1        0.1097
     12 N         -10.7036  -17.9749   21.4864 N.ar    1  UNL1       -0.3058
     13 C         -11.6629  -16.9619   22.0372 C.ar    1  UNL1        0.0982
     14 C         -12.3991  -16.3460   20.8845 C.ar    1  UNL1        0.1193
     15 N         -11.8948  -16.9783   19.6213 N.ar    1  UNL1       -0.2223
     16 C         -10.8468  -17.9851   19.9933 C.ar    1  UNL1        0.1788
     17 C          -8.6358  -16.3286   24.0560 C.3     1  UNL1        0.0500
     18 C          -7.9710  -15.2362   24.8400 C.3     1  UNL1        0.0774
     19 N          -7.3287  -15.5445   26.1600 N.3     1  UNL1       -0.2700
     20 C          -5.8608  -15.3043   26.3541 C.3     1  UNL1        0.0897
     21 C          -8.1543  -16.0930   27.2858 C.3     1  UNL1        0.0897
@<TRIPOS>BOND
     1    10    11    1
     2    11     1    1
     3     1     2   ar
     4     2    17    1
     5    17    18    1
     6    18    19    1
     7    19    20    1
     8    19    21    1
     9     2     3   ar
    10     3     4   ar
    11     4     5   ar
    12     5     6   ar
    13     6     7   ar
    14     7     8   ar
    15     8     9   ar
    16    11    12    1
    17    12    13   ar
    18    13    14   ar
    19    14    15   ar
    20    15    16   ar
    21     9     1   ar
    22    16    12   ar
    23     9     4   ar
@<TRIPOS>MOLECULE
*****
 21 23 0 0 0
SMALL
GASTEIGER

@<TRIPOS>ATOM
      1 C          -8.5576  -17.0663   22.7857 C.ar    1  UNL1        0.0008
      2 C          -7.9406  -18.3030   22.2027 C.ar    1  UNL1        0.0064
      3 S          -9.0362  -19.1209   21.5858 S.2     1  UNL1       -0.0915
      4 C         -10.3303  -18.3897   21.7876 C.ar    1  UNL1        0.0289
      5 C         -11.7398  -18.7162   21.3918 C.ar    1  UNL1        0.0065
      6 C         -12.8535  -17.7727   21.7376 C.ar    1  UNL1        0.0005
      7 C         -12.5577  -16.5029   22.4792 C.ar    1  UNL1        0.0000
      8 C         -11.1482  -16.1764   22.8749 C.ar    1  UNL1        0.0002
      9 C         -10.0345  -17.1199   22.5291 C.ar    1  UNL1        0.0039
     10 C          -7.2098  -14.8460   22.7186 C.3     1  UNL1        0.0295
     11 C          -7.8261  -15.9686   23.4999 C.3     1  UNL1        0.1097
     12 N          -7.7107  -15.9934   24.9951 N.ar    1  UNL1       -0.3058
     13 C          -8.7403  -16.5202   25.9503 C.ar    1  UNL1        0.0982
     14 C          -8.2114  -16.3481   27.3434 C.ar    1  UNL1        0.1193
     15 N          -6.8549  -15.7150   27.2492 N.ar    1  UNL1       -0.2223
     16 C          -6.5454  -15.4957   25.7979 C.ar    1  UNL1        0.1788
     17 C          -6.4838  -18.6592   22.2316 C.3     1  UNL1        0.0500
     18 C          -5.8901  -19.4790   21.1246 C.3     1  UNL1        0.0774
     19 N          -4.4084  -19.7064   21.0714 N.3     1  UNL1       -0.2700
     20 C          -3.8050  -20.4524   19.9183 C.3     1  UNL1        0.0897
     21 C          -3.5301  -19.1879   22.1712 C.3     1  UNL1        0.0897
@<TRIPOS>BOND
     1    10    11    1
     2    11     1    1
     3     1     2   ar
     4     2    17    1
     5    17    18    1
     6    18    19    1
     7    19    20    1
     8    19    21    1
     9     2     3   ar
    10     3     4   ar
    11     4     5   ar
    12     5     6   ar
    13     6     7   ar
    14     7     8   ar
    15     8     9   ar
    16    11    12    1
    17    12    13   ar
    18    13    14   ar
    19    14    15   ar
    20    15    16   ar
    21     9     1   ar
    22    16    12   ar
    23     9     4   ar
@<TRIPOS>MOLECULE
*****
 21 23 0 0 0
SMALL
GASTEIGER

@<TRIPOS>ATOM
      1 C          -7.4039  -18.2862   21.8973 C.ar    1  UNL1        0.0008
      2 C          -7.3884  -17.0167   22.6961 C.ar    1  UNL1        0.0064
      3 S          -8.6733  -16.2884   22.4339 S.2     1  UNL1       -0.0915
      4 C          -9.4829  -17.1078   21.4730 C.ar    1  UNL1        0.0289
      5 C         -10.8330  -16.8891   20.8573 C.ar    1  UNL1        0.0065
      6 C         -11.3987  -17.9051   19.9099 C.ar    1  UNL1        0.0005
      7 C         -10.6142  -19.1398   19.5782 C.ar    1  UNL1        0.0000
      8 C          -9.2640  -19.3585   20.1940 C.ar    1  UNL1        0.0002
      9 C          -8.6984  -18.3425   21.1414 C.ar    1  UNL1        0.0039
     10 C          -6.5655  -20.6909   22.4120 C.3     1  UNL1        0.0295
     11 C          -6.3160  -19.3182   21.8607 C.3     1  UNL1        0.1097
     12 N          -4.9787  -18.9779   21.2729 N.ar    1  UNL1       -0.3058
     13 C          -3.7631  -18.5466   22.0384 C.ar    1  UNL1        0.0982
     14 C          -2.6553  -18.3112   21.0549 C.ar    1  UNL1        0.1193
     15 N          -3.1862  -18.5970   19.6815 N.ar    1  UNL1       -0.2223
     16 C          -4.6222  -19.0091   19.8162 C.ar    1  UNL1        0.1788
     17 C          -6.2823  -16.5563   23.5986 C.3     1  UNL1        0.0500
     18 C          -6.4746  -15.3459   24.4634 C.3     1  UNL1        0.0774
     19 N          -7.1043  -15.4842   25.8178 N.3     1  UNL1       -0.2700
     20 C          -6.2404  -15.6409   27.0340 C.3     1  UNL1        0.0897
     21 C          -8.5978  -15.4657   25.9559 C.3     1  UNL1        0.0897
@<TRIPOS>BOND
     1    10    11    1
     2    11     1    1
     3     1     2   ar
     4     2    17    1
     5    17    18    1
     6    18    19    1
     7    19    20    1
     8    19    21    1
     9     2     3   ar
    10     3     4   ar
    11     4     5   ar
    12     5     6   ar
    13     6     7   ar
    14     7     8   ar
    15     8     9   ar
    16    11    12    1
    17    12    13   ar
    18    13    14   ar
    19    14    15   ar
    20    15    16   ar
    21     9     1   ar
    22    16    12   ar
    23     9     4   ar
@<TRIPOS>MOLECULE
*****
 21 23 0 0 0
SMALL
GASTEIGER

@<TRIPOS>ATOM
      1 C          -6.1799  -18.3217   22.2777 C.ar    1  UNL1        0.0008
      2 C          -4.7152  -18.6186   22.4061 C.ar    1  UNL1        0.0064
      3 S          -4.1270  -17.6384   23.3772 S.2     1  UNL1       -0.0915
      4 C          -5.2281  -16.7355   23.8489 C.ar    1  UNL1        0.0289
      5 C          -5.2393  -15.5835   24.8094 C.ar    1  UNL1        0.0065
      6 C          -6.5193  -14.8538   25.0904 C.ar    1  UNL1        0.0005
      7 C          -7.7881  -15.2761   24.4108 C.ar    1  UNL1        0.0000
      8 C          -7.7769  -16.4282   23.4503 C.ar    1  UNL1        0.0002
      9 C          -6.4969  -17.1579   23.1693 C.ar    1  UNL1        0.0039
     10 C          -6.7780  -19.4358   20.0080 C.3     1  UNL1        0.0295
     11 C          -7.1562  -19.0591   21.4099 C.3     1  UNL1        0.1097
     12 N          -8.5107  -19.4197   21.9438 N.ar    1  UNL1       -0.3058
     13 C          -8.7931  -20.0685   23.2663 C.ar    1  UNL1        0.0982
     14 C         -10.2776  -20.2446   23.3888 C.ar    1  UNL1        0.1193
     15 N         -10.9129  -19.7046   22.1419 N.ar    1  UNL1       -0.2223
     16 C          -9.8208  -19.1947   21.2488 C.ar    1  UNL1        0.1788
     17 C          -3.9697  -19.7051   21.6893 C.3     1  UNL1        0.0500
     18 C          -2.5178  -19.5257   21.3581 C.3     1  UNL1        0.0774
     19 N          -2.1137  -18.6598   20.2018 N.3     1  UNL1       -0.2700
     20 C          -0.7049  -18.1550   20.0992 C.3     1  UNL1        0.0897
     21 C          -3.1184  -18.2987   19.1482 C.3     1  UNL1        0.0897
@<TRIPOS>BOND
     1    10    11    1
     2    11     1    1
     3     1     2   ar
     4     2    17    1
     5    17    18    1
     6    18    19    1
     7    19    20    1
     8    19    21    1
     9     2     3   ar
    10     3     4   ar
    11     4     5   ar
    12     5     6   ar
    13     6     7   ar
    14     7     8   ar
    15     8     9   ar
    16    11    12    1
    17    12    13   ar
    18    13    14   ar
    19    14    15   ar
    20    15    16   ar
    21     9     1   ar
    22    16    12   ar
    23     9     4   ar
@<TRIPOS>MOLECULE
*****
 21 23 0 0 0
SMALL
GASTEIGER

@<TRIPOS>ATOM
      1 C         -13.2450   -4.8118   19.4124 C.ar    1  UNL1        0.0008
      2 C         -14.2929   -5.8592   19.1785 C.ar    1  UNL1        0.0064
      3 S         -13.6058   -7.1031   18.6983 S.2     1  UNL1       -0.0915
      4 C         -12.1332   -6.8244   18.6354 C.ar    1  UNL1        0.0289
      5 C         -10.9666   -7.6772   18.2332 C.ar    1  UNL1        0.0065
      6 C          -9.5770   -7.1138   18.2724 C.ar    1  UNL1        0.0005
      7 C          -9.3540   -5.6977   18.7138 C.ar    1  UNL1        0.0000
      8 C         -10.5206   -4.8449   19.1159 C.ar    1  UNL1        0.0002
      9 C         -11.9102   -5.4083   19.0767 C.ar    1  UNL1        0.0039
     10 C         -13.9667   -3.1780   21.2992 C.3     1  UNL1        0.0295
     11 C         -13.4889   -3.4133   19.8969 C.3     1  UNL1        0.1097
     12 N         -13.2552   -2.2501   18.9792 N.ar    1  UNL1       -0.3058
     13 C         -11.9974   -1.4381   18.8875 C.ar    1  UNL1        0.0982
     14 C         -12.2032   -0.3808   17.8436 C.ar    1  UNL1        0.1193
     15 N         -13.5882   -0.5393   17.2901 N.ar    1  UNL1       -0.2223
     16 C         -14.2385   -1.6946   17.9919 C.ar    1  UNL1        0.1788
     17 C         -15.7687   -5.6921   19.3881 C.3     1  UNL1        0.0500
     18 C         -16.7280   -6.6744   18.7840 C.3     1  UNL1        0.0774
     19 N         -17.3958   -7.7005   19.6507 N.3     1  UNL1       -0.2700
     20 C         -16.6247   -8.8953   20.1284 C.3     1  UNL1        0.0897
     21 C         -18.8346   -7.5320   20.0396 C.3     1  UNL1        0.0897
@<TRIPOS>BOND
     1    10    11    1
     2    11     1    1
     3     1     2   ar
     4     2    17    1
     5    17    18    1
     6    18    19    1
     7    19    20    1
     8    19    21    1
     9     2     3   ar
    10     3     4   ar
    11     4     5   ar
    12     5     6   ar
    13     6     7   ar
    14     7     8   ar
    15     8     9   ar
    16    11    12    1
    17    12    13   ar
    18    13    14   ar
    19    14    15   ar
    20    15    16   ar
    21     9     1   ar
    22    16    12   ar
    23     9     4   ar
@<TRIPOS>MOLECULE
*****
 21 23 0 0 0
SMALL
GASTEIGER

@<TRIPOS>ATOM
      1 C         -13.5773   -5.7730   18.1531 C.ar    1  UNL1        0.0008
      2 C         -13.7254   -4.3829   18.6969 C.ar    1  UNL1        0.0064
      3 S         -12.3812   -3.9307   19.1855 S.2     1  UNL1       -0.0915
      4 C         -11.4024   -5.0413   18.9437 C.ar    1  UNL1        0.0289
      5 C          -9.9335   -5.1629   19.2221 C.ar    1  UNL1        0.0065
      6 C          -9.2038   -6.4231   18.8624 C.ar    1  UNL1        0.0005
      7 C          -9.9430   -7.5617   18.2244 C.ar    1  UNL1        0.0000
      8 C         -11.4119   -7.4402   17.9460 C.ar    1  UNL1        0.0002
      9 C         -12.1416   -6.1800   18.3057 C.ar    1  UNL1        0.0039
     10 C         -15.1590   -6.3319   16.1692 C.3     1  UNL1        0.0295
     11 C         -14.6725   -6.6094   17.5608 C.3     1  UNL1        0.1097
     12 N         -15.2813   -7.7232   18.3599 N.ar    1  UNL1       -0.3058
     13 C         -16.2754   -7.5691   19.4726 C.ar    1  UNL1        0.0982
     14 C         -16.6114   -8.9374   19.9870 C.ar    1  UNL1        0.1193
     15 N         -15.8251   -9.9374   19.1922 N.ar    1  UNL1       -0.2223
     16 C         -15.0030   -9.1870   18.1866 C.ar    1  UNL1        0.1788
     17 C         -14.9948   -3.5851   18.7438 C.3     1  UNL1        0.0500
     18 C         -15.2053   -2.5740   19.8315 C.3     1  UNL1        0.0774
     19 N         -15.2575   -1.1126   19.4972 N.3     1  UNL1       -0.2700
     20 C         -14.2855   -0.5334   18.5124 C.3     1  UNL1        0.0897
     21 C         -16.2815   -0.2305   20.1477 C.3     1  UNL1        0.0897
@<TRIPOS>BOND
     1    10    11    1
     2    11     1    1
     3     1     2   ar
     4     2    17    1
     5    17    18    1
     6    18    19    1
     7    19    20    1
     8    19    21    1
     9     2     3   ar
    10     3     4   ar
    11     4     5   ar
    12     5     6   ar
    13     6     7   ar
    14     7     8   ar
    15     8     9   ar
    16    11    12    1
    17    12    13   ar
    18    13    14   ar
    19    14    15   ar
    20    15    16   ar
    21     9     1   ar
    22    16    12   ar
    23     9     4   ar
@<TRIPOS>MOLECULE
*****
 21 23 0 0 0
SMALL
GASTEIGER

@<TRIPOS>ATOM
      1 C          -5.1862  -17.7545   22.7500 C.ar    1  UNL1        0.0008
      2 C          -6.2616  -16.7943   23.1640 C.ar    1  UNL1        0.0064
      3 S          -7.5399  -17.2167   22.5026 S.2     1  UNL1       -0.0915
      4 C          -7.2546  -18.4381   21.6798 C.ar    1  UNL1        0.0289
      5 C          -8.1314  -19.2904   20.8112 C.ar    1  UNL1        0.0065
      6 C          -7.5535  -20.4752   20.0955 C.ar    1  UNL1        0.0005
      7 C          -6.0988  -20.8076   20.2484 C.ar    1  UNL1        0.0000
      8 C          -5.2220  -19.9552   21.1170 C.ar    1  UNL1        0.0002
      9 C          -5.7999  -18.7704   21.8327 C.ar    1  UNL1        0.0039
     10 C          -3.3948  -17.8335   24.6302 C.3     1  UNL1        0.0295
     11 C          -3.7494  -17.7072   23.1781 C.3     1  UNL1        0.1097
     12 N          -2.6670  -17.5336   22.1543 N.ar    1  UNL1       -0.3058
     13 C          -1.9493  -18.6365   21.4342 C.ar    1  UNL1        0.0982
     14 C          -0.9510  -18.0111   20.5056 C.ar    1  UNL1        0.1193
     15 N          -1.0518  -16.5217   20.6517 N.ar    1  UNL1       -0.2223
     16 C          -2.1123  -16.2266   21.6706 C.ar    1  UNL1        0.1788
     17 C          -6.0890  -15.6181   24.0787 C.3     1  UNL1        0.0500
     18 C          -7.2564  -15.1041   24.8680 C.3     1  UNL1        0.0774
     19 N          -7.6186  -15.7451   26.1750 N.3     1  UNL1       -0.2700
     20 C          -8.7507  -16.7270   26.2404 C.3     1  UNL1        0.0897
     21 C          -6.8488  -15.4041   27.4163 C.3     1  UNL1        0.0897
@<TRIPOS>BOND
     1    10    11    1
     2    11     1    1
     3     1     2   ar
     4     2    17    1
     5    17    18    1
     6    18    19    1
     7    19    20    1
     8    19    21    1
     9     2     3   ar
    10     3     4   ar
    11     4     5   ar
    12     5     6   ar
    13     6     7   ar
    14     7     8   ar
    15     8     9   ar
    16    11    12    1
    17    12    13   ar
    18    13    14   ar
    19    14    15   ar
    20    15    16   ar
    21     9     1   ar
    22    16    12   ar
    23     9     4   ar
