@<TRIPOS>MOLECULE
*****
 44 48 0 0 0
SMALL
GASTEIGER

@<TRIPOS>ATOM
      1 N           8.3517   -4.8786   28.3274 N.am    1  UNL1       -0.2733
      2 C           7.8913   -5.0155   29.7485 C.2     1  UNL1        0.2462
      3 O           8.3122   -6.2033   30.5620 O.2     1  UNL1       -0.2730
      4 C           7.0102   -3.9645   30.3559 C.3     1  UNL1        0.1759
      5 N           6.5894   -2.7766   29.5423 N.am    1  UNL1       -0.2951
      6 C           7.0497   -2.6398   28.1213 C.2     1  UNL1        0.2390
      7 O           6.6288   -1.4519   27.3077 O.2     1  UNL1       -0.2734
      8 C           7.9309   -3.6908   27.5138 C.3     1  UNL1        0.1314
      9 C           8.8120   -4.7418   26.9063 C.3     1  UNL1        0.0445
     10 C           9.2723   -4.6049   25.4853 C.3     1  UNL1        0.0745
     11 N           8.8514   -3.4170   24.6717 N.3     1  UNL1       -0.2688
     12 C           7.9703   -2.3661   25.2792 C.3     1  UNL1        0.0745
     13 C           7.5100   -2.5029   26.7002 C.3     1  UNL1        0.0445
     14 H           6.0111   -2.0869   29.9410 H       1  UNL1        0.1499
     15 C           6.5499   -4.1013   31.7770 C.3     1  UNL1        0.1372
     16 O           6.4526   -5.4594   32.4064 O.3     1  UNL1       -0.3823
     17 H           6.7214   -6.1339   31.7631 H       1  UNL1        0.2104
     18 C           6.1869   -2.8801   32.5687 C.3     1  UNL1        0.0291
     19 C           4.7796   -2.6906   33.0520 C.3     1  UNL1        0.0025
     20 C           4.4166   -1.4693   33.8437 C.3     1  UNL1        0.0001
     21 C           5.4608   -0.4376   34.1520 C.3     1  UNL1        0.0000
     22 C           6.8681   -0.6271   33.6687 C.3     1  UNL1        0.0001
     23 C           7.2311   -1.8484   32.8770 C.3     1  UNL1        0.0025
     24 C           9.2328   -5.9296   27.7199 C.3     1  UNL1        0.0938
     25 C           8.9405   -7.3817   27.9563 C.3     1  UNL1        0.0215
     26 C           7.2371   -7.8925   26.0623 C.3     1  UNL1        0.0001
     27 C           8.4806   -8.2486   26.8219 C.3     1  UNL1        0.0018
     28 C           9.3118   -3.2802   23.2506 C.3     1  UNL1        0.0992
     29 C           8.3057   -3.1625   22.1444 C.ar    1  UNL1       -0.0059
     30 C           8.4935   -2.1373   21.0657 C.ar    1  UNL1        0.0002
     31 C           7.4873   -2.0197   19.9594 C.ar    1  UNL1        0.0372
     32 C           6.2933   -2.9272   19.9319 C.ar    1  UNL1        0.1453
     33 C           6.1055   -3.9524   21.0106 C.ar    1  UNL1        0.0372
     34 C           7.1116   -4.0701   22.1168 C.ar    1  UNL1        0.0002
     35 O           5.2872   -2.8095   18.8256 O.3     1  UNL1       -0.4535
     36 C           4.1368   -1.8559   18.9564 C.ar    1  UNL1        0.1453
     37 C           3.9295   -0.7850   17.9268 C.ar    1  UNL1        0.0375
     38 C           2.7790    0.1686   18.0576 C.ar    1  UNL1        0.0043
     39 C           1.8358    0.0513   19.2181 C.ar    1  UNL1        0.0142
     40 C           2.0431   -1.0197   20.2477 C.ar    1  UNL1        0.0043
     41 C           3.1936   -1.9733   20.1169 C.ar    1  UNL1        0.0375
     42 C           0.6854    1.0049   19.3489 C.2     1  UNL1        0.0729
     43 O           0.4913    2.0900   18.3316 O.co2   1  UNL1       -0.5446
     44 O          -0.2710    0.8733   20.4969 O.co2   1  UNL1       -0.5446
@<TRIPOS>UNITY_ATOM_ATTR
43 1
charge -1
@<TRIPOS>BOND
     1    26    27    1
     2    27    25    1
     3    25    24    1
     4    24     1    1
     5     1     2   am
     6     2     3    2
     7     2     4    1
     8     4    15    1
     9    15    16    1
    10    15    18    1
    11    18    19    1
    12    19    20    1
    13    20    21    1
    14    21    22    1
    15    22    23    1
    16     4     5    1
    17     5     6   am
    18     6     7    2
    19     6     8    1
    20     8     9    1
    21     9    10    1
    22    10    11    1
    23    11    28    1
    24    28    29    1
    25    29    30   ar
    26    30    31   ar
    27    31    32   ar
    28    32    35    1
    29    35    36    1
    30    36    37   ar
    31    37    38   ar
    32    38    39   ar
    33    39    42    1
    34    42    43   ar
    35    42    44   ar
    36    39    40   ar
    37    40    41   ar
    38    32    33   ar
    39    33    34   ar
    40    11    12    1
    41    12    13    1
    42     8     1    1
    43    34    29   ar
    44    23    18    1
    45    13     8    1
    46    41    36   ar
    47    16    17    1
    48     5    14    1
@<TRIPOS>MOLECULE
*****
 44 48 0 0 0
SMALL
GASTEIGER

@<TRIPOS>ATOM
      1 N           3.5540    0.6118   33.3170 N.am    1  UNL1       -0.2733
      2 C           3.8410    1.0060   34.7356 C.2     1  UNL1        0.2462
      3 O           4.9075    0.2916   35.5115 O.2     1  UNL1       -0.2730
      4 C           3.0614    2.1147   35.3782 C.3     1  UNL1        0.1759
      5 N           1.9948    2.8292   34.6023 N.am    1  UNL1       -0.2951
      6 C           1.7079    2.4350   33.1838 C.2     1  UNL1        0.2390
      7 O           0.6413    3.1495   32.4079 O.2     1  UNL1       -0.2734
      8 C           2.4875    1.3263   32.5411 C.3     1  UNL1        0.1314
      9 C           3.2671    0.2176   31.8985 C.3     1  UNL1        0.0445
     10 C           2.9802   -0.1766   30.4799 C.3     1  UNL1        0.0745
     11 N           1.9136    0.5379   29.7041 N.3     1  UNL1       -0.2688
     12 C           1.1340    1.6465   30.3467 C.3     1  UNL1        0.0745
     13 C           1.4210    2.0407   31.7652 C.3     1  UNL1        0.0445
     14 H           1.4831    3.5569   35.0241 H       1  UNL1        0.1499
     15 C           3.3483    2.5090   36.7968 C.3     1  UNL1        0.1372
     16 O           4.5423    3.3606   37.1116 O.3     1  UNL1       -0.3823
     17 H           5.0179    3.5664   36.2917 H       1  UNL1        0.2104
     18 C           2.4412    2.0516   37.9004 C.3     1  UNL1        0.0291
     19 C           2.6200    0.6893   38.5021 C.3     1  UNL1        0.0025
     20 C           1.7130    0.2319   39.6057 C.3     1  UNL1        0.0001
     21 C           0.6271    1.1369   40.1077 C.3     1  UNL1        0.0000
     22 C           0.4483    2.4992   39.5060 C.3     1  UNL1        0.0001
     23 C           1.3554    2.9566   38.4023 C.3     1  UNL1        0.0025
     24 C           4.3336   -0.4969   32.6744 C.3     1  UNL1        0.0938
     25 C           4.3310   -1.8672   33.2846 C.3     1  UNL1        0.0215
     26 C           6.0324   -2.7461   31.5288 C.3     1  UNL1        0.0001
     27 C           5.3530   -2.8794   32.8595 C.3     1  UNL1        0.0018
     28 C           1.6267    0.1436   28.2855 C.3     1  UNL1        0.0992
     29 C           2.7571   -0.1724   27.3516 C.ar    1  UNL1       -0.0059
     30 C           3.0135    0.7032   26.1609 C.ar    1  UNL1        0.0002
     31 C           4.1440    0.3871   25.2271 C.ar    1  UNL1        0.0372
     32 C           5.0181   -0.8046   25.4838 C.ar    1  UNL1        0.1453
     33 C           4.7617   -1.6801   26.6745 C.ar    1  UNL1        0.0372
     34 C           3.6313   -1.3641   27.6083 C.ar    1  UNL1        0.0002
     35 O           6.1486   -1.1206   24.5500 O.3     1  UNL1       -0.4535
     36 C           5.8814   -1.8586   23.2717 C.ar    1  UNL1        0.1453
     37 C           6.6488   -1.5111   22.0306 C.ar    1  UNL1        0.0375
     38 C           6.3817   -2.2491   20.7523 C.ar    1  UNL1        0.0043
     39 C           5.3471   -3.3346   20.7151 C.ar    1  UNL1        0.0142
     40 C           4.5797   -3.6821   21.9562 C.ar    1  UNL1        0.0043
     41 C           4.8468   -2.9441   23.2345 C.ar    1  UNL1        0.0375
     42 C           5.0800   -4.0726   19.4368 C.2     1  UNL1        0.0729
     43 O           4.5986   -5.4927   19.4772 O.co2   1  UNL1       -0.5446
     44 O           5.2942   -3.3905   18.1182 O.co2   1  UNL1       -0.5446
@<TRIPOS>UNITY_ATOM_ATTR
43 1
charge -1
@<TRIPOS>BOND
     1    26    27    1
     2    27    25    1
     3    25    24    1
     4    24     1    1
     5     1     2   am
     6     2     3    2
     7     2     4    1
     8     4    15    1
     9    15    16    1
    10    15    18    1
    11    18    19    1
    12    19    20    1
    13    20    21    1
    14    21    22    1
    15    22    23    1
    16     4     5    1
    17     5     6   am
    18     6     7    2
    19     6     8    1
    20     8     9    1
    21     9    10    1
    22    10    11    1
    23    11    28    1
    24    28    29    1
    25    29    30   ar
    26    30    31   ar
    27    31    32   ar
    28    32    35    1
    29    35    36    1
    30    36    37   ar
    31    37    38   ar
    32    38    39   ar
    33    39    42    1
    34    42    43   ar
    35    42    44   ar
    36    39    40   ar
    37    40    41   ar
    38    32    33   ar
    39    33    34   ar
    40    11    12    1
    41    12    13    1
    42     8     1    1
    43    34    29   ar
    44    23    18    1
    45    13     8    1
    46    41    36   ar
    47    16    17    1
    48     5    14    1
@<TRIPOS>MOLECULE
*****
 44 48 0 0 0
SMALL
GASTEIGER

@<TRIPOS>ATOM
      1 N           7.4275   -5.3155   25.7224 N.am    1  UNL1       -0.2733
      2 C           7.3773   -5.2537   24.2245 C.2     1  UNL1        0.2462
      3 O           7.9774   -6.3596   23.4077 O.2     1  UNL1       -0.2730
      4 C           6.7271   -4.0862   23.5434 C.3     1  UNL1        0.1759
      5 N           6.1270   -2.9804   24.3601 N.am    1  UNL1       -0.2951
      6 C           6.1771   -3.0421   25.8580 C.2     1  UNL1        0.2390
      7 O           5.5770   -1.9363   26.6747 O.2     1  UNL1       -0.2734
      8 C           6.8274   -4.2097   26.5392 C.3     1  UNL1        0.1314
      9 C           7.4776   -5.3773   27.2203 C.3     1  UNL1        0.0445
     10 C           7.5278   -5.4390   28.7181 C.3     1  UNL1        0.0745
     11 N           6.9277   -4.3332   29.5349 N.3     1  UNL1       -0.2688
     12 C           6.2774   -3.1657   28.8538 C.3     1  UNL1        0.0745
     13 C           6.2273   -3.1039   27.3559 C.3     1  UNL1        0.0445
     14 H           5.7002   -2.2141   23.9130 H       1  UNL1        0.1499
     15 C           6.6769   -4.0244   22.0454 C.3     1  UNL1        0.1372
     16 O           7.7603   -4.6678   21.2316 O.3     1  UNL1       -0.3823
     17 H           8.4104   -5.0764   21.8242 H       1  UNL1        0.2104
     18 C           5.5434   -3.3193   21.3614 C.3     1  UNL1        0.0291
     19 C           4.6866   -4.0572   20.3759 C.3     1  UNL1        0.0025
     20 C           3.5531   -3.3520   19.6919 C.3     1  UNL1        0.0001
     21 C           3.2764   -1.9089   19.9934 C.3     1  UNL1        0.0000
     22 C           4.1332   -1.1710   20.9790 C.3     1  UNL1        0.0001
     23 C           5.2667   -1.8762   21.6630 C.3     1  UNL1        0.0025
     24 C           8.0777   -6.4831   26.4035 C.3     1  UNL1        0.0938
     25 C           7.3973   -7.8199   26.4133 C.3     1  UNL1        0.0215
     26 C           9.2582   -8.7572   27.9653 C.3     1  UNL1        0.0001
     27 C           8.0043   -8.9649   27.1686 C.3     1  UNL1        0.0018
     28 C           6.9779   -4.3950   31.0328 C.3     1  UNL1        0.0992
     29 C           6.9607   -3.1287   31.8367 C.ar    1  UNL1       -0.0059
     30 C           8.2233   -2.3401   32.0208 C.ar    1  UNL1        0.0002
     31 C           8.2062   -1.0738   32.8247 C.ar    1  UNL1        0.0372
     32 C           6.9264   -0.5962   33.4444 C.ar    1  UNL1        0.1453
     33 C           5.6638   -1.3848   33.2603 C.ar    1  UNL1        0.0372
     34 C           5.6809   -2.6510   32.4564 C.ar    1  UNL1        0.0002
     35 O           6.9093    0.6701   34.2483 O.3     1  UNL1       -0.4535
     36 C           5.7879    0.9335   35.2091 C.ar    1  UNL1        0.1453
     37 C           5.8297    0.3478   36.5893 C.ar    1  UNL1        0.0375
     38 C           4.7083    0.6112   37.5501 C.ar    1  UNL1        0.0043
     39 C           3.5451    1.4602   37.1306 C.ar    1  UNL1        0.0142
     40 C           3.5032    2.0459   35.7503 C.ar    1  UNL1        0.0043
     41 C           4.6246    1.7825   34.7895 C.ar    1  UNL1        0.0375
     42 C           2.4236    1.7235   38.0914 C.2     1  UNL1        0.0729
     43 O           2.3448    0.9594   39.3798 O.co2   1  UNL1       -0.5446
     44 O           1.3811    2.7510   37.7638 O.co2   1  UNL1       -0.5446
@<TRIPOS>UNITY_ATOM_ATTR
43 1
charge -1
@<TRIPOS>BOND
     1    26    27    1
     2    27    25    1
     3    25    24    1
     4    24     1    1
     5     1     2   am
     6     2     3    2
     7     2     4    1
     8     4    15    1
     9    15    16    1
    10    15    18    1
    11    18    19    1
    12    19    20    1
    13    20    21    1
    14    21    22    1
    15    22    23    1
    16     4     5    1
    17     5     6   am
    18     6     7    2
    19     6     8    1
    20     8     9    1
    21     9    10    1
    22    10    11    1
    23    11    28    1
    24    28    29    1
    25    29    30   ar
    26    30    31   ar
    27    31    32   ar
    28    32    35    1
    29    35    36    1
    30    36    37   ar
    31    37    38   ar
    32    38    39   ar
    33    39    42    1
    34    42    43   ar
    35    42    44   ar
    36    39    40   ar
    37    40    41   ar
    38    32    33   ar
    39    33    34   ar
    40    11    12    1
    41    12    13    1
    42     8     1    1
    43    34    29   ar
    44    23    18    1
    45    13     8    1
    46    41    36   ar
    47    16    17    1
    48     5    14    1
@<TRIPOS>MOLECULE
*****
 44 48 0 0 0
SMALL
GASTEIGER

@<TRIPOS>ATOM
      1 N           6.6563   -3.2860   29.7027 N.am    1  UNL1       -0.2733
      2 C           6.2189   -3.2789   31.1376 C.2     1  UNL1        0.2462
      3 O           6.7268   -4.3280   32.0817 O.2     1  UNL1       -0.2730
      4 C           5.2736   -2.2227   31.6283 C.3     1  UNL1        0.1759
      5 N           4.7656   -1.1736   30.6842 N.am    1  UNL1       -0.2951
      6 C           5.2030   -1.1807   29.2494 C.2     1  UNL1        0.2390
      7 O           4.6950   -0.1316   28.3053 O.2     1  UNL1       -0.2734
      8 C           6.1483   -2.2369   28.7586 C.3     1  UNL1        0.1314
      9 C           7.0936   -3.2931   28.2680 C.3     1  UNL1        0.0445
     10 C           7.5310   -3.3002   26.8332 C.3     1  UNL1        0.0745
     11 N           7.0230   -2.2510   25.8891 N.3     1  UNL1       -0.2688
     12 C           6.0777   -1.1948   26.3798 C.3     1  UNL1        0.0745
     13 C           5.6404   -1.1878   27.8145 C.3     1  UNL1        0.0445
     14 H           4.1452   -0.4804   31.0062 H       1  UNL1        0.1499
     15 C           4.8362   -2.2156   33.0631 C.3     1  UNL1        0.1372
     16 O           3.7815   -3.1745   33.5304 O.3     1  UNL1       -0.3823
     17 H           3.4909   -3.7236   32.7855 H       1  UNL1        0.2104
     18 C           5.4534   -1.2497   34.0306 C.3     1  UNL1        0.0291
     19 C           4.7028   -0.8396   35.2628 C.3     1  UNL1        0.0025
     20 C           5.3200    0.1263   36.2303 C.3     1  UNL1        0.0001
     21 C           6.6879    0.6822   35.9655 C.3     1  UNL1        0.0000
     22 C           7.4384    0.2721   34.7332 C.3     1  UNL1        0.0001
     23 C           6.8211   -0.6938   33.7657 C.3     1  UNL1        0.0025
     24 C           7.6016   -4.3422   29.2121 C.3     1  UNL1        0.0938
     25 C           7.2115   -5.7889   29.2817 C.3     1  UNL1        0.0215
     26 C           7.9011   -7.1479   27.1776 C.3     1  UNL1        0.0001
     27 C           8.0744   -6.8305   28.6333 C.3     1  UNL1        0.0018
     28 C           7.4605   -2.2581   24.4543 C.3     1  UNL1        0.0992
     29 C           6.4366   -2.2707   23.3581 C.ar    1  UNL1       -0.0059
     30 C           5.5241   -3.4504   23.1976 C.ar    1  UNL1        0.0002
     31 C           4.5003   -3.4629   22.1014 C.ar    1  UNL1        0.0372
     32 C           4.3889   -2.2958   21.1658 C.ar    1  UNL1        0.1453
     33 C           5.3014   -1.1161   21.3263 C.ar    1  UNL1        0.0372
     34 C           6.3252   -1.1036   22.4224 C.ar    1  UNL1        0.0002
     35 O           3.3651   -2.3083   20.0697 O.3     1  UNL1       -0.4535
     36 C           2.5400   -1.0850   19.7999 C.ar    1  UNL1        0.1453
     37 C           1.3204   -0.8055   20.6273 C.ar    1  UNL1        0.0375
     38 C           0.4954    0.4178   20.3575 C.ar    1  UNL1        0.0043
     39 C           0.8899    1.3616   19.2605 C.ar    1  UNL1        0.0142
     40 C           2.1095    1.0822   18.4331 C.ar    1  UNL1        0.0043
     41 C           2.9346   -0.1412   18.7028 C.ar    1  UNL1        0.0375
     42 C           0.0648    2.5850   18.9908 C.2     1  UNL1        0.0729
     43 O           0.0251    3.1738   17.6117 O.co2   1  UNL1       -0.5446
     44 O          -0.7205    3.2195   20.1001 O.co2   1  UNL1       -0.5446
@<TRIPOS>UNITY_ATOM_ATTR
43 1
charge -1
@<TRIPOS>BOND
     1    26    27    1
     2    27    25    1
     3    25    24    1
     4    24     1    1
     5     1     2   am
     6     2     3    2
     7     2     4    1
     8     4    15    1
     9    15    16    1
    10    15    18    1
    11    18    19    1
    12    19    20    1
    13    20    21    1
    14    21    22    1
    15    22    23    1
    16     4     5    1
    17     5     6   am
    18     6     7    2
    19     6     8    1
    20     8     9    1
    21     9    10    1
    22    10    11    1
    23    11    28    1
    24    28    29    1
    25    29    30   ar
    26    30    31   ar
    27    31    32   ar
    28    32    35    1
    29    35    36    1
    30    36    37   ar
    31    37    38   ar
    32    38    39   ar
    33    39    42    1
    34    42    43   ar
    35    42    44   ar
    36    39    40   ar
    37    40    41   ar
    38    32    33   ar
    39    33    34   ar
    40    11    12    1
    41    12    13    1
    42     8     1    1
    43    34    29   ar
    44    23    18    1
    45    13     8    1
    46    41    36   ar
    47    16    17    1
    48     5    14    1
@<TRIPOS>MOLECULE
*****
 44 48 0 0 0
SMALL
GASTEIGER

@<TRIPOS>ATOM
      1 N           1.9698    2.5173   33.1776 N.am    1  UNL1       -0.2733
      2 C           2.2243    2.9126   34.6021 C.2     1  UNL1        0.2462
      3 O           1.5486    4.1222   35.1769 O.2     1  UNL1       -0.2730
      4 C           3.1544    2.0984   35.4517 C.3     1  UNL1        0.1759
      5 N           3.8301    0.8888   34.8769 N.am    1  UNL1       -0.2951
      6 C           3.5757    0.4935   33.4525 C.2     1  UNL1        0.2390
      7 O           4.2514   -0.7161   32.8778 O.2     1  UNL1       -0.2734
      8 C           2.6455    1.3077   32.6028 C.3     1  UNL1        0.1314
      9 C           1.7155    2.1219   31.7532 C.3     1  UNL1        0.0445
     10 C           1.4611    1.7266   30.3288 C.3     1  UNL1        0.0745
     11 N           2.1368    0.5170   29.7540 N.3     1  UNL1       -0.2688
     12 C           3.0669   -0.2972   30.6037 C.3     1  UNL1        0.0745
     13 C           3.3213    0.0981   32.0281 C.3     1  UNL1        0.0445
     14 H           4.4405    0.3544   35.4346 H       1  UNL1        0.1499
     15 C           3.4088    2.4937   36.8762 C.3     1  UNL1        0.1372
     16 O           4.5867    3.3581   37.2157 O.3     1  UNL1       -0.3823
     17 H           5.0762    3.5704   36.4056 H       1  UNL1        0.2104
     18 C           2.4853    2.0246   37.9611 C.3     1  UNL1        0.0291
     19 C           1.4233    2.9420   38.4908 C.3     1  UNL1        0.0025
     20 C           0.4998    2.4730   39.5757 C.3     1  UNL1        0.0001
     21 C           0.6382    1.0864   40.1310 C.3     1  UNL1        0.0000
     22 C           1.7002    0.1689   39.6013 C.3     1  UNL1        0.0001
     23 C           2.6237    0.6381   38.5163 C.3     1  UNL1        0.0025
     24 C           1.0397    3.3315   32.3280 C.3     1  UNL1        0.0938
     25 C           1.3165    4.7874   32.0962 C.3     1  UNL1        0.0215
     26 C          -0.9920    5.4377   33.0951 C.3     1  UNL1        0.0001
     27 C           0.2290    5.7997   32.3026 C.3     1  UNL1        0.0018
     28 C           1.8824    0.1217   28.3296 C.3     1  UNL1        0.0992
     29 C           0.9991    0.9689   27.4624 C.ar    1  UNL1       -0.0059
     30 C           1.5940    1.7733   26.3448 C.ar    1  UNL1        0.0002
     31 C           0.7106    2.6205   25.4777 C.ar    1  UNL1        0.0372
     32 C          -0.7676    2.6634   25.7281 C.ar    1  UNL1        0.1453
     33 C          -1.3626    1.8590   26.8457 C.ar    1  UNL1        0.0372
     34 C          -0.4793    1.0118   27.7129 C.ar    1  UNL1        0.0002
     35 O          -1.6510    3.5106   24.8610 O.3     1  UNL1       -0.4535
     36 C          -2.8861    4.1386   25.4354 C.ar    1  UNL1        0.1453
     37 C          -4.2371    3.7544   24.9089 C.ar    1  UNL1        0.0375
     38 C          -5.4723    4.3824   25.4833 C.ar    1  UNL1        0.0043
     39 C          -5.3565    5.3945   26.5842 C.ar    1  UNL1        0.0142
     40 C          -4.0055    5.7787   27.1109 C.ar    1  UNL1        0.0043
     41 C          -2.7703    5.1507   26.5365 C.ar    1  UNL1        0.0375
     42 C          -6.5917    6.0225   27.1586 C.2     1  UNL1        0.0729
     43 O          -6.8575    5.9428   28.6328 O.co2   1  UNL1       -0.5446
     44 O          -7.5611    6.7302   26.2590 O.co2   1  UNL1       -0.5446
@<TRIPOS>UNITY_ATOM_ATTR
43 1
charge -1
@<TRIPOS>BOND
     1    26    27    1
     2    27    25    1
     3    25    24    1
     4    24     1    1
     5     1     2   am
     6     2     3    2
     7     2     4    1
     8     4    15    1
     9    15    16    1
    10    15    18    1
    11    18    19    1
    12    19    20    1
    13    20    21    1
    14    21    22    1
    15    22    23    1
    16     4     5    1
    17     5     6   am
    18     6     7    2
    19     6     8    1
    20     8     9    1
    21     9    10    1
    22    10    11    1
    23    11    28    1
    24    28    29    1
    25    29    30   ar
    26    30    31   ar
    27    31    32   ar
    28    32    35    1
    29    35    36    1
    30    36    37   ar
    31    37    38   ar
    32    38    39   ar
    33    39    42    1
    34    42    43   ar
    35    42    44   ar
    36    39    40   ar
    37    40    41   ar
    38    32    33   ar
    39    33    34   ar
    40    11    12    1
    41    12    13    1
    42     8     1    1
    43    34    29   ar
    44    23    18    1
    45    13     8    1
    46    41    36   ar
    47    16    17    1
    48     5    14    1
@<TRIPOS>MOLECULE
*****
 44 48 0 0 0
SMALL
GASTEIGER

@<TRIPOS>ATOM
      1 N           2.4318   -0.3177   20.3712 N.am    1  UNL1       -0.2733
      2 C           3.2846   -1.2270   19.5369 C.2     1  UNL1        0.2462
      3 O           3.1594   -1.2103   18.0423 O.2     1  UNL1       -0.2730
      4 C           4.2626   -2.1529   20.1973 C.3     1  UNL1        0.1759
      5 N           4.3879   -2.1695   21.6920 N.am    1  UNL1       -0.2951
      6 C           3.5351   -1.2603   22.5263 C.2     1  UNL1        0.2390
      7 O           3.6604   -1.2770   24.0209 O.2     1  UNL1       -0.2734
      8 C           2.5570   -0.3344   21.8659 C.3     1  UNL1        0.1314
      9 C           1.5790    0.5915   21.2055 C.3     1  UNL1        0.0445
     10 C           0.7262    1.5007   22.0398 C.3     1  UNL1        0.0745
     11 N           0.8515    1.4840   23.5344 N.3     1  UNL1       -0.2688
     12 C           1.8295    0.5582   24.1948 C.3     1  UNL1        0.0745
     13 C           2.6823   -0.3511   23.3605 C.3     1  UNL1        0.0445
     14 H           5.0298   -2.7772   22.1254 H       1  UNL1        0.1499
     15 C           5.1155   -3.0622   19.3630 C.3     1  UNL1        0.1372
     16 O           4.4949   -3.8737   18.2647 O.3     1  UNL1       -0.3823
     17 H           3.5424   -3.6942   18.2287 H       1  UNL1        0.2104
     18 C           6.5888   -3.1598   19.6271 C.3     1  UNL1        0.0291
     19 C           7.1013   -4.0951   20.6818 C.3     1  UNL1        0.0025
     20 C           8.5747   -4.1928   20.9459 C.3     1  UNL1        0.0001
     21 C           9.5355   -3.3552   20.1551 C.3     1  UNL1        0.0000
     22 C           9.0230   -2.4199   19.1004 C.3     1  UNL1        0.0001
     23 C           7.5496   -2.3222   18.8364 C.3     1  UNL1        0.0025
     24 C           1.4537    0.6082   19.7108 C.3     1  UNL1        0.0938
     25 C           1.8544    1.3705   18.4827 C.3     1  UNL1        0.0215
     26 C           4.2721    2.3137   18.6055 C.3     1  UNL1        0.0001
     27 C           2.7890    2.5382   18.5964 C.3     1  UNL1        0.0018
     28 C          -0.0014    2.3933   24.3687 C.3     1  UNL1        0.0992
     29 C           0.1574    2.4111   25.8602 C.ar    1  UNL1       -0.0059
     30 C           1.2129    3.2694   26.4919 C.ar    1  UNL1        0.0002
     31 C           1.3717    3.2872   27.9834 C.ar    1  UNL1        0.0372
     32 C           0.4749    2.4466   28.8431 C.ar    1  UNL1        0.1453
     33 C          -0.5806    1.5882   28.2114 C.ar    1  UNL1        0.0372
     34 C          -0.7394    1.5704   26.7200 C.ar    1  UNL1        0.0002
     35 O           0.6337    2.4643   30.3346 O.3     1  UNL1       -0.4535
     36 C           1.5888    1.5173   30.9985 C.ar    1  UNL1        0.1453
     37 C           2.0192    0.2670   30.2903 C.ar    1  UNL1        0.0375
     38 C           2.9744   -0.6800   30.9542 C.ar    1  UNL1        0.0043
     39 C           3.4991   -0.3768   32.3263 C.ar    1  UNL1        0.0142
     40 C           3.0687    0.8735   33.0345 C.ar    1  UNL1        0.0043
     41 C           2.1136    1.8205   32.3706 C.ar    1  UNL1        0.0375
     42 C           4.4543   -1.3239   32.9902 C.2     1  UNL1        0.0729
     43 O           3.9480   -2.3225   33.9886 O.co2   1  UNL1       -0.5446
     44 O           5.9156   -1.2724   32.6558 O.co2   1  UNL1       -0.5446
@<TRIPOS>UNITY_ATOM_ATTR
43 1
charge -1
@<TRIPOS>BOND
     1    26    27    1
     2    27    25    1
     3    25    24    1
     4    24     1    1
     5     1     2   am
     6     2     3    2
     7     2     4    1
     8     4    15    1
     9    15    16    1
    10    15    18    1
    11    18    19    1
    12    19    20    1
    13    20    21    1
    14    21    22    1
    15    22    23    1
    16     4     5    1
    17     5     6   am
    18     6     7    2
    19     6     8    1
    20     8     9    1
    21     9    10    1
    22    10    11    1
    23    11    28    1
    24    28    29    1
    25    29    30   ar
    26    30    31   ar
    27    31    32   ar
    28    32    35    1
    29    35    36    1
    30    36    37   ar
    31    37    38   ar
    32    38    39   ar
    33    39    42    1
    34    42    43   ar
    35    42    44   ar
    36    39    40   ar
    37    40    41   ar
    38    32    33   ar
    39    33    34   ar
    40    11    12    1
    41    12    13    1
    42     8     1    1
    43    34    29   ar
    44    23    18    1
    45    13     8    1
    46    41    36   ar
    47    16    17    1
    48     5    14    1
@<TRIPOS>MOLECULE
*****
 44 48 0 0 0
SMALL
GASTEIGER

@<TRIPOS>ATOM
      1 N           3.6158    0.5971   33.1529 N.am    1  UNL1       -0.2733
      2 C           3.9454    0.9175   34.5808 C.2     1  UNL1        0.2462
      3 O           5.0612    0.1929   35.2736 O.2     1  UNL1       -0.2730
      4 C           3.1592    1.9623   35.3157 C.3     1  UNL1        0.1759
      5 N           2.0434    2.6868   34.6229 N.am    1  UNL1       -0.2951
      6 C           1.7138    2.3665   33.1951 C.2     1  UNL1        0.2390
      7 O           0.5980    3.0910   32.5022 O.2     1  UNL1       -0.2734
      8 C           2.4999    1.3216   32.4600 C.3     1  UNL1        0.1314
      9 C           3.2861    0.2767   31.7251 C.3     1  UNL1        0.0445
     10 C           2.9564   -0.0436   30.2973 C.3     1  UNL1        0.0745
     11 N           1.8406    0.6809   29.6044 N.3     1  UNL1       -0.2688
     12 C           1.0545    1.7258   30.3394 C.3     1  UNL1        0.0745
     13 C           1.3841    2.0461   31.7672 C.3     1  UNL1        0.0445
     14 H           1.5274    3.3726   35.1053 H       1  UNL1        0.1499
     15 C           3.4889    2.2827   36.7436 C.3     1  UNL1        0.1372
     16 O           4.7990    2.9289   37.0840 O.3     1  UNL1       -0.3823
     17 H           5.3105    3.0701   36.2720 H       1  UNL1        0.2104
     18 C           2.5084    1.9569   37.8310 C.3     1  UNL1        0.0291
     19 C           2.5332    0.6064   38.4833 C.3     1  UNL1        0.0025
     20 C           1.5527    0.2806   39.5707 C.3     1  UNL1        0.0001
     21 C           0.5473    1.3052   40.0057 C.3     1  UNL1        0.0000
     22 C           0.5224    2.6557   39.3534 C.3     1  UNL1        0.0001
     23 C           1.5030    2.9815   38.2660 C.3     1  UNL1        0.0025
     24 C           4.4019   -0.4478   32.4179 C.3     1  UNL1        0.0938
     25 C           4.2796   -1.8910   32.8081 C.3     1  UNL1        0.0215
     26 C           6.1549   -3.2197   31.5966 C.3     1  UNL1        0.0001
     27 C           5.5019   -2.7585   32.8658 C.3     1  UNL1        0.0018
     28 C           1.5110    0.3605   28.1765 C.3     1  UNL1        0.0992
     29 C           0.8821    1.4027   27.3000 C.ar    1  UNL1       -0.0059
     30 C           1.7248    2.4944   26.7100 C.ar    1  UNL1        0.0002
     31 C           1.0958    3.5366   25.8334 C.ar    1  UNL1        0.0372
     32 C          -0.3757    3.4870   25.5468 C.ar    1  UNL1        0.1453
     33 C          -1.2183    2.3953   26.1368 C.ar    1  UNL1        0.0372
     34 C          -0.5894    1.3531   27.0134 C.ar    1  UNL1        0.0002
     35 O          -1.0045    4.5292   24.6702 O.3     1  UNL1       -0.4535
     36 C          -2.4977    4.6063   24.5498 C.ar    1  UNL1        0.1453
     37 C          -3.3050    5.2563   25.6341 C.ar    1  UNL1        0.0375
     38 C          -4.7982    5.3335   25.5136 C.ar    1  UNL1        0.0043
     39 C          -5.4840    4.7607   24.3089 C.ar    1  UNL1        0.0142
     40 C          -4.6767    4.1106   23.2245 C.ar    1  UNL1        0.0043
     41 C          -3.1835    4.0335   23.3450 C.ar    1  UNL1        0.0375
     42 C          -6.9772    4.8378   24.1884 C.2     1  UNL1        0.0729
     43 O          -7.7609    5.7112   25.1229 O.co2   1  UNL1       -0.5446
     44 O          -7.6867    4.0418   23.1335 O.co2   1  UNL1       -0.5446
@<TRIPOS>UNITY_ATOM_ATTR
43 1
charge -1
@<TRIPOS>BOND
     1    26    27    1
     2    27    25    1
     3    25    24    1
     4    24     1    1
     5     1     2   am
     6     2     3    2
     7     2     4    1
     8     4    15    1
     9    15    16    1
    10    15    18    1
    11    18    19    1
    12    19    20    1
    13    20    21    1
    14    21    22    1
    15    22    23    1
    16     4     5    1
    17     5     6   am
    18     6     7    2
    19     6     8    1
    20     8     9    1
    21     9    10    1
    22    10    11    1
    23    11    28    1
    24    28    29    1
    25    29    30   ar
    26    30    31   ar
    27    31    32   ar
    28    32    35    1
    29    35    36    1
    30    36    37   ar
    31    37    38   ar
    32    38    39   ar
    33    39    42    1
    34    42    43   ar
    35    42    44   ar
    36    39    40   ar
    37    40    41   ar
    38    32    33   ar
    39    33    34   ar
    40    11    12    1
    41    12    13    1
    42     8     1    1
    43    34    29   ar
    44    23    18    1
    45    13     8    1
    46    41    36   ar
    47    16    17    1
    48     5    14    1
@<TRIPOS>MOLECULE
*****
 44 48 0 0 0
SMALL
GASTEIGER

@<TRIPOS>ATOM
      1 N           7.1446   -2.3639   19.3162 N.am    1  UNL1       -0.2733
      2 C           6.2516   -1.6318   18.3587 C.2     1  UNL1        0.2462
      3 O           6.8361   -0.9624   17.1504 O.2     1  UNL1       -0.2730
      4 C           4.7741   -1.5692   18.6097 C.3     1  UNL1        0.1759
      5 N           4.1895   -2.2387   19.8181 N.am    1  UNL1       -0.2951
      6 C           5.0825   -2.9707   20.7755 C.2     1  UNL1        0.2390
      7 O           4.4979   -3.6401   21.9839 O.2     1  UNL1       -0.2734
      8 C           6.5600   -3.0334   20.5246 C.3     1  UNL1        0.1314
      9 C           8.0375   -3.0960   20.2736 C.3     1  UNL1        0.0445
     10 C           8.9305   -3.8280   21.2310 C.3     1  UNL1        0.0745
     11 N           8.3459   -4.4974   22.4394 N.3     1  UNL1       -0.2688
     12 C           6.8684   -4.4348   22.6903 C.3     1  UNL1        0.0745
     13 C           5.9755   -3.7028   21.7329 C.3     1  UNL1        0.0445
     14 H           3.2197   -2.1975   19.9828 H       1  UNL1        0.1499
     15 C           3.8810   -0.8371   17.6522 C.3     1  UNL1        0.1372
     16 O           3.7191   -1.3359   16.2469 O.3     1  UNL1       -0.3823
     17 H           4.2559   -2.1344   16.1233 H       1  UNL1        0.2104
     18 C           3.1500    0.3936   18.1002 C.3     1  UNL1        0.0291
     19 C           1.6729    0.3375   18.3552 C.3     1  UNL1        0.0025
     20 C           0.9418    1.5683   18.8032 C.3     1  UNL1        0.0001
     21 C           1.6879    2.8553   18.9960 C.3     1  UNL1        0.0000
     22 C           3.1649    2.9114   18.7409 C.3     1  UNL1        0.0001
     23 C           3.8960    1.6805   18.2930 C.3     1  UNL1        0.0025
     24 C           8.6221   -2.4265   19.0652 C.3     1  UNL1        0.0938
     25 C           9.4458   -1.1741   19.1195 C.3     1  UNL1        0.0215
     26 C           9.5326    0.0507   21.4091 C.3     1  UNL1        0.0001
     27 C           9.0234   -0.0363   20.0008 C.3     1  UNL1        0.0018
     28 C           9.2390   -5.2295   23.3968 C.3     1  UNL1        0.0992
     29 C           8.7792   -5.4916   24.8003 C.ar    1  UNL1       -0.0059
     30 C           7.8143   -6.6061   25.0777 C.ar    1  UNL1        0.0002
     31 C           7.3545   -6.8681   26.4813 C.ar    1  UNL1        0.0372
     32 C           7.8596   -6.0157   27.6075 C.ar    1  UNL1        0.1453
     33 C           8.8245   -4.9012   27.3301 C.ar    1  UNL1        0.0372
     34 C           9.2843   -4.6391   25.9266 C.ar    1  UNL1        0.0002
     35 O           7.3999   -6.2777   29.0110 O.3     1  UNL1       -0.4535
     36 C           6.9885   -5.1349   29.8911 C.ar    1  UNL1        0.1453
     37 C           6.5825   -3.8264   29.2805 C.ar    1  UNL1        0.0375
     38 C           6.1711   -2.6836   30.1607 C.ar    1  UNL1        0.0043
     39 C           6.1657   -2.8493   31.6515 C.ar    1  UNL1        0.0142
     40 C           6.5716   -4.1579   32.2622 C.ar    1  UNL1        0.0043
     41 C           6.9830   -5.3007   31.3820 C.ar    1  UNL1        0.0375
     42 C           5.7542   -1.7064   32.5317 C.2     1  UNL1        0.0729
     43 O           6.7737   -1.0132   33.3862 O.co2   1  UNL1       -0.5446
     44 O           4.3235   -1.2569   32.5573 O.co2   1  UNL1       -0.5446
@<TRIPOS>UNITY_ATOM_ATTR
43 1
charge -1
@<TRIPOS>BOND
     1    26    27    1
     2    27    25    1
     3    25    24    1
     4    24     1    1
     5     1     2   am
     6     2     3    2
     7     2     4    1
     8     4    15    1
     9    15    16    1
    10    15    18    1
    11    18    19    1
    12    19    20    1
    13    20    21    1
    14    21    22    1
    15    22    23    1
    16     4     5    1
    17     5     6   am
    18     6     7    2
    19     6     8    1
    20     8     9    1
    21     9    10    1
    22    10    11    1
    23    11    28    1
    24    28    29    1
    25    29    30   ar
    26    30    31   ar
    27    31    32   ar
    28    32    35    1
    29    35    36    1
    30    36    37   ar
    31    37    38   ar
    32    38    39   ar
    33    39    42    1
    34    42    43   ar
    35    42    44   ar
    36    39    40   ar
    37    40    41   ar
    38    32    33   ar
    39    33    34   ar
    40    11    12    1
    41    12    13    1
    42     8     1    1
    43    34    29   ar
    44    23    18    1
    45    13     8    1
    46    41    36   ar
    47    16    17    1
    48     5    14    1
@<TRIPOS>MOLECULE
*****
 44 48 0 0 0
SMALL
GASTEIGER

@<TRIPOS>ATOM
      1 N           2.1380    0.4292   24.4346 N.am    1  UNL1       -0.2733
      2 C           1.7174    0.4217   22.9948 C.2     1  UNL1        0.2462
      3 O           0.6329    1.3457   22.5254 O.2     1  UNL1       -0.2730
      4 C           2.3812   -0.5097   22.0243 C.3     1  UNL1        0.1759
      5 N           3.4657   -1.4336   22.4937 N.am    1  UNL1       -0.2951
      6 C           3.8863   -1.4262   23.9334 C.2     1  UNL1        0.2390
      7 O           4.9708   -2.3501   24.4028 O.2     1  UNL1       -0.2734
      8 C           3.2224   -0.4947   24.9040 C.3     1  UNL1        0.1314
      9 C           2.5586    0.4366   25.8744 C.3     1  UNL1        0.0445
     10 C           2.9792    0.4441   27.3142 C.3     1  UNL1        0.0745
     11 N           4.0636   -0.4799   27.7835 N.3     1  UNL1       -0.2688
     12 C           4.7275   -1.4113   26.8131 C.3     1  UNL1        0.0745
     13 C           4.3069   -1.4187   25.3733 C.3     1  UNL1        0.0445
     14 H           3.9014   -2.0449   21.8567 H       1  UNL1        0.1499
     15 C           1.9607   -0.5171   20.5845 C.3     1  UNL1        0.1372
     16 O           0.5054   -0.5914   20.2286 O.3     1  UNL1       -0.3823
     17 H          -0.0245   -0.6283   21.0403 H       1  UNL1        0.2104
     18 C           2.9953   -0.4503   19.5005 C.3     1  UNL1        0.0291
     19 C           3.4736    0.8808   19.0013 C.3     1  UNL1        0.0025
     20 C           4.5083    0.9477   17.9174 C.3     1  UNL1        0.0001
     21 C           5.0647   -0.3167   17.3326 C.3     1  UNL1        0.0000
     22 C           4.5864   -1.6479   17.8319 C.3     1  UNL1        0.0001
     23 C           3.5517   -1.7146   18.9159 C.3     1  UNL1        0.0025
     24 C           1.4741    1.3606   25.4050 C.3     1  UNL1        0.0938
     25 C          -0.0054    1.2732   25.6361 C.3     1  UNL1        0.0215
     26 C          -0.7040    0.9102   28.1120 C.3     1  UNL1        0.0001
     27 C          -0.5981    1.8002   26.9092 C.3     1  UNL1        0.0018
     28 C           4.4842   -0.4724   29.2234 C.3     1  UNL1        0.0992
     29 C           3.8927    0.5274   30.1723 C.ar    1  UNL1       -0.0059
     30 C           4.6247    1.8021   30.4712 C.ar    1  UNL1        0.0002
     31 C           4.0332    2.8019   31.4202 C.ar    1  UNL1        0.0372
     32 C           2.7096    2.5269   32.0702 C.ar    1  UNL1        0.1453
     33 C           1.9776    1.2522   31.7714 C.ar    1  UNL1        0.0372
     34 C           2.5691    0.2525   30.8225 C.ar    1  UNL1        0.0002
     35 O           2.1181    3.5267   33.0192 O.3     1  UNL1       -0.4535
     36 C           2.2523    3.3261   34.4996 C.ar    1  UNL1        0.1453
     37 C           3.0258    2.1560   35.0309 C.ar    1  UNL1        0.0375
     38 C           3.1599    1.9554   36.5114 C.ar    1  UNL1        0.0043
     39 C           2.5206    2.9250   37.4606 C.ar    1  UNL1        0.0142
     40 C           1.7470    4.0952   36.9293 C.ar    1  UNL1        0.0043
     41 C           1.6128    4.2958   35.4489 C.ar    1  UNL1        0.0375
     42 C           2.6547    2.7244   38.9410 C.2     1  UNL1        0.0729
     43 O           4.0031    2.8189   39.5916 O.co2   1  UNL1       -0.5446
     44 O           1.4406    2.4294   39.7710 O.co2   1  UNL1       -0.5446
@<TRIPOS>UNITY_ATOM_ATTR
43 1
charge -1
@<TRIPOS>BOND
     1    26    27    1
     2    27    25    1
     3    25    24    1
     4    24     1    1
     5     1     2   am
     6     2     3    2
     7     2     4    1
     8     4    15    1
     9    15    16    1
    10    15    18    1
    11    18    19    1
    12    19    20    1
    13    20    21    1
    14    21    22    1
    15    22    23    1
    16     4     5    1
    17     5     6   am
    18     6     7    2
    19     6     8    1
    20     8     9    1
    21     9    10    1
    22    10    11    1
    23    11    28    1
    24    28    29    1
    25    29    30   ar
    26    30    31   ar
    27    31    32   ar
    28    32    35    1
    29    35    36    1
    30    36    37   ar
    31    37    38   ar
    32    38    39   ar
    33    39    42    1
    34    42    43   ar
    35    42    44   ar
    36    39    40   ar
    37    40    41   ar
    38    32    33   ar
    39    33    34   ar
    40    11    12    1
    41    12    13    1
    42     8     1    1
    43    34    29   ar
    44    23    18    1
    45    13     8    1
    46    41    36   ar
    47    16    17    1
    48     5    14    1
