@<TRIPOS>MOLECULE
*****
 31 34 0 0 0
SMALL
GASTEIGER

@<TRIPOS>ATOM
      1 C          -6.6298  -20.3495   20.7962 C.ar    1  UNL1        0.0038
      2 C          -7.0368  -20.3524   22.2399 C.ar    1  UNL1        0.0965
      3 N          -8.3802  -19.8195   22.6415 N.ar    1  UNL1       -0.2274
      4 C          -9.3166  -19.2837   21.5995 C.ar    1  UNL1        0.1564
      5 C          -8.9096  -19.2808   20.1557 C.ar    1  UNL1        0.1710
      6 F          -9.8461  -18.7449   19.1136 F       1  UNL1       -0.2012
      7 C          -7.5662  -19.8136   19.7540 C.ar    1  UNL1        0.0301
      8 N         -10.6600  -18.7508   22.0011 N.pl3   1  UNL1       -0.3126
      9 H         -11.3097  -18.4831   21.3115 H       1  UNL1        0.1486
     10 C         -11.0136  -18.6258   23.4535 C.3     1  UNL1        0.1170
     11 C         -10.1493  -17.8096   24.3682 C.ar    1  UNL1        0.0166
     12 C          -9.6947  -16.4430   23.9491 C.ar    1  UNL1        0.0004
     13 C          -8.8304  -15.6268   24.8638 C.ar    1  UNL1        0.0228
     14 C          -8.4207  -16.1771   26.1978 C.ar    1  UNL1        0.1526
     15 N          -8.8754  -17.5438   26.6169 N.ar    1  UNL1       -0.2401
     16 C          -9.7397  -18.3599   25.7021 C.ar    1  UNL1        0.0961
     17 C          -7.5564  -15.3609   27.1125 C.3     1  UNL1        0.4348
     18 F          -6.6922  -14.5446   28.0272 F       1  UNL1       -0.1644
     19 F          -6.3309  -15.9082   26.4429 F       1  UNL1       -0.1644
     20 F          -8.7821  -14.8136   27.7821 F       1  UNL1       -0.1644
     21 C          -5.2864  -20.8824   20.3945 C.3     1  UNL1        0.0581
     22 C          -4.1857  -16.6298   24.3310 C.3     1  UNL1        0.0307
     23 C          -3.6411  -17.1291   23.0256 C.2     1  UNL1        0.0074
     24 C          -2.4606  -16.4504   22.3967 C.2     1  UNL1        0.2278
     25 N          -1.9159  -16.9497   21.0913 N.2     1  UNL1       -0.0314
     26 C          -2.5518  -18.1278   20.4148 C.2     1  UNL1        0.3716
     27 N          -2.2372  -18.8392   19.1323 N.2     1  UNL1       -0.0311
     28 C          -3.2233  -19.9576   18.9686 C.2     1  UNL1        0.2319
     29 C          -4.1474  -19.9375   20.1499 C.2     1  UNL1        0.0328
     30 C          -3.7324  -18.8066   21.0438 C.2     1  UNL1        0.0704
     31 C          -4.2770  -18.3073   22.3492 C.3     1  UNL1        0.0598
@<TRIPOS>BOND
     1    22    23    1
     2    23    24    2
     3    24    25    1
     4    25    26    2
     5    26    27    1
     6    27    28    2
     7    28    29    1
     8    29    21    1
     9    21     1    1
    10     1     2   ar
    11     2     3   ar
    12     3     4   ar
    13     4     8    1
    14     8    10    1
    15    10    11    1
    16    11    12   ar
    17    12    13   ar
    18    13    14   ar
    19    14    17    1
    20    17    18    1
    21    17    19    1
    22    17    20    1
    23    14    15   ar
    24    15    16   ar
    25     4     5   ar
    26     5     6    1
    27     5     7   ar
    28    29    30    2
    29    30    31    1
    30    31    23    1
    31    30    26    1
    32     7     1   ar
    33    16    11   ar
    34     8     9    1
@<TRIPOS>MOLECULE
*****
 31 34 0 0 0
SMALL
GASTEIGER

@<TRIPOS>ATOM
      1 C          -6.8656  -20.0092   21.0584 C.ar    1  UNL1        0.0038
      2 C          -7.3443  -20.3460   22.4394 C.ar    1  UNL1        0.0965
      3 N          -8.7850  -20.1431   22.8042 N.ar    1  UNL1       -0.2274
      4 C          -9.7472  -19.6035   21.7879 C.ar    1  UNL1        0.1564
      5 C          -9.2685  -19.2667   20.4067 C.ar    1  UNL1        0.1710
      6 F         -10.2307  -18.7270   19.3904 F       1  UNL1       -0.2012
      7 C          -7.8278  -19.4695   20.0419 C.ar    1  UNL1        0.0301
      8 N         -11.1880  -19.4007   22.1526 N.pl3   1  UNL1       -0.3126
      9 H         -11.8735  -20.0210   21.8143 H       1  UNL1        0.1486
     10 C         -11.5843  -18.2527   23.0330 C.3     1  UNL1        0.1170
     11 C         -10.5873  -17.6561   23.9817 C.ar    1  UNL1        0.0166
     12 C          -9.9637  -16.3266   23.6763 C.ar    1  UNL1        0.0004
     13 C          -8.9667  -15.7300   24.6251 C.ar    1  UNL1        0.0228
     14 C          -8.5934  -16.4630   25.8794 C.ar    1  UNL1        0.1526
     15 N          -9.2170  -17.7927   26.1848 N.ar    1  UNL1       -0.2401
     16 C         -10.2139  -18.3891   25.2360 C.ar    1  UNL1        0.0961
     17 C          -7.5964  -15.8665   26.8281 C.3     1  UNL1        0.4348
     18 F          -6.5994  -15.2699   27.7769 F       1  UNL1       -0.1644
     19 F          -6.7095  -15.5102   25.6721 F       1  UNL1       -0.1644
     20 F          -8.4834  -16.2228   27.9842 F       1  UNL1       -0.1644
     21 C          -5.4249  -20.2120   20.6936 C.3     1  UNL1        0.0581
     22 C          -1.3468  -17.7653   17.2043 C.3     1  UNL1        0.0307
     23 C          -1.7112  -17.8069   18.6588 C.2     1  UNL1        0.0074
     24 C          -0.8895  -17.0501   19.6597 C.2     1  UNL1        0.2278
     25 N          -1.2538  -17.0917   21.1142 N.2     1  UNL1       -0.0314
     26 C          -2.4398  -17.8902   21.5678 C.2     1  UNL1        0.3716
     27 N          -3.0372  -18.1176   22.9247 N.2     1  UNL1       -0.0311
     28 C          -4.2281  -19.0150   22.7624 C.2     1  UNL1        0.2319
     29 C          -4.3668  -19.3423   21.3052 C.2     1  UNL1        0.0328
     30 C          -3.2615  -18.6470   20.5668 C.2     1  UNL1        0.0704
     31 C          -2.8972  -18.6054   19.1123 C.3     1  UNL1        0.0598
@<TRIPOS>BOND
     1    22    23    1
     2    23    24    2
     3    24    25    1
     4    25    26    2
     5    26    27    1
     6    27    28    2
     7    28    29    1
     8    29    21    1
     9    21     1    1
    10     1     2   ar
    11     2     3   ar
    12     3     4   ar
    13     4     8    1
    14     8    10    1
    15    10    11    1
    16    11    12   ar
    17    12    13   ar
    18    13    14   ar
    19    14    17    1
    20    17    18    1
    21    17    19    1
    22    17    20    1
    23    14    15   ar
    24    15    16   ar
    25     4     5   ar
    26     5     6    1
    27     5     7   ar
    28    29    30    2
    29    30    31    1
    30    31    23    1
    31    30    26    1
    32     7     1   ar
    33    16    11   ar
    34     8     9    1
@<TRIPOS>MOLECULE
*****
 31 34 0 0 0
SMALL
GASTEIGER

@<TRIPOS>ATOM
      1 C           5.0998   -3.6054   21.9419 C.ar    1  UNL1        0.0038
      2 C           6.4988   -4.0092   22.3018 C.ar    1  UNL1        0.0965
      3 N           7.0641   -3.6425   23.6420 N.ar    1  UNL1       -0.2274
      4 C           6.2303   -2.8720   24.6223 C.ar    1  UNL1        0.1564
      5 C           4.8312   -2.4681   24.2623 C.ar    1  UNL1        0.1710
      6 F           3.9974   -1.6975   25.2426 F       1  UNL1       -0.2012
      7 C           4.2659   -2.8348   22.9222 C.ar    1  UNL1        0.0301
      8 N           6.7955   -2.5053   25.9624 N.pl3   1  UNL1       -0.3126
      9 H           7.0956   -1.5835   26.1346 H       1  UNL1        0.1486
     10 C           6.9036   -3.5429   27.0402 C.3     1  UNL1        0.1170
     11 C           6.5540   -3.1927   28.4562 C.ar    1  UNL1        0.0166
     12 C           6.9417   -4.1143   29.5744 C.ar    1  UNL1        0.0004
     13 C           6.5921   -3.7641   30.9904 C.ar    1  UNL1        0.0228
     14 C           5.8548   -2.4922   31.2883 C.ar    1  UNL1        0.1526
     15 N           5.4672   -1.5705   30.1701 N.ar    1  UNL1       -0.2401
     16 C           5.8168   -1.9208   28.7541 C.ar    1  UNL1        0.0961
     17 C           5.5052   -2.1420   32.7043 C.3     1  UNL1        0.4348
     18 F           5.1557   -1.7918   34.1203 F       1  UNL1       -0.1644
     19 F           4.0477   -2.2828   32.3793 F       1  UNL1       -0.1644
     20 F           6.9629   -2.0013   33.0293 F       1  UNL1       -0.1644
     21 C           4.5346   -3.9721   20.6018 C.3     1  UNL1        0.0581
     22 C           0.3718    0.2038   20.4428 C.3     1  UNL1        0.0307
     23 C           1.5656   -0.2320   19.6460 C.2     1  UNL1        0.0074
     24 C           1.9525    0.5159   18.4047 C.2     1  UNL1        0.2278
     25 N           3.1463    0.0802   17.6079 N.2     1  UNL1       -0.0314
     26 C           3.9533   -1.1035   18.0524 C.2     1  UNL1        0.3716
     27 N           5.1715   -1.7616   17.4755 N.2     1  UNL1       -0.0311
     28 C           5.5375   -2.9163   18.3602 C.2     1  UNL1        0.2319
     29 C           4.5455   -2.9718   19.4840 C.2     1  UNL1        0.0328
     30 C           3.5664   -1.8514   19.2938 C.2     1  UNL1        0.0704
     31 C           2.3726   -1.4157   20.0905 C.3     1  UNL1        0.0598
@<TRIPOS>BOND
     1    22    23    1
     2    23    24    2
     3    24    25    1
     4    25    26    2
     5    26    27    1
     6    27    28    2
     7    28    29    1
     8    29    21    1
     9    21     1    1
    10     1     2   ar
    11     2     3   ar
    12     3     4   ar
    13     4     8    1
    14     8    10    1
    15    10    11    1
    16    11    12   ar
    17    12    13   ar
    18    13    14   ar
    19    14    17    1
    20    17    18    1
    21    17    19    1
    22    17    20    1
    23    14    15   ar
    24    15    16   ar
    25     4     5   ar
    26     5     6    1
    27     5     7   ar
    28    29    30    2
    29    30    31    1
    30    31    23    1
    31    30    26    1
    32     7     1   ar
    33    16    11   ar
    34     8     9    1
@<TRIPOS>MOLECULE
*****
 31 34 0 0 0
SMALL
GASTEIGER

@<TRIPOS>ATOM
      1 C           1.4542    0.8651   18.8084 C.ar    1  UNL1        0.0038
      2 C           0.8316    0.0871   19.9295 C.ar    1  UNL1        0.0965
      3 N          -0.1641    0.7461   20.8375 N.ar    1  UNL1       -0.2274
      4 C          -0.5372    2.1832   20.6243 C.ar    1  UNL1        0.1564
      5 C           0.0854    2.9613   19.5031 C.ar    1  UNL1        0.1710
      6 F          -0.2877    4.3984   19.2899 F       1  UNL1       -0.2012
      7 C           1.0811    2.3023   18.5952 C.ar    1  UNL1        0.0301
      8 N          -1.5329    2.8422   21.5322 N.pl3   1  UNL1       -0.3126
      9 H          -2.4965    2.7603   21.3481 H       1  UNL1        0.1486
     10 C          -1.0603    3.6258   22.7207 C.3     1  UNL1        0.1170
     11 C          -0.8817    2.9449   24.0452 C.ar    1  UNL1        0.0166
     12 C           0.2176    1.9413   24.2305 C.ar    1  UNL1        0.0004
     13 C           0.3962    1.2604   25.5550 C.ar    1  UNL1        0.0228
     14 C          -0.5245    1.5830   26.6944 C.ar    1  UNL1        0.1526
     15 N          -1.6239    2.5866   26.5091 N.ar    1  UNL1       -0.2401
     16 C          -1.8025    3.2675   25.1846 C.ar    1  UNL1        0.0961
     17 C          -0.3459    0.9020   28.0189 C.3     1  UNL1        0.4348
     18 F          -0.1673    0.2210   29.3434 F       1  UNL1       -0.1644
     19 F           1.1134    0.7156   27.7263 F       1  UNL1       -0.1644
     20 F          -1.8053    1.0884   28.3115 F       1  UNL1       -0.1644
     21 C           2.4499    0.2062   17.9005 C.3     1  UNL1        0.0581
     22 C           3.5350   -5.2950   19.7313 C.3     1  UNL1        0.0307
     23 C           4.2565   -3.9871   19.5944 C.2     1  UNL1        0.0074
     24 C           5.6956   -3.8780   20.0032 C.2     1  UNL1        0.2278
     25 N           6.4171   -2.5701   19.8664 N.2     1  UNL1       -0.0314
     26 C           5.6995   -1.3712   19.3208 C.2     1  UNL1        0.3716
     27 N           6.1464    0.0390   19.0724 N.2     1  UNL1       -0.0311
     28 C           4.9834    0.8015   18.5101 C.2     1  UNL1        0.2319
     29 C           3.8178   -0.1374   18.4110 C.2     1  UNL1        0.0328
     30 C           4.2605   -1.4802   18.9120 C.2     1  UNL1        0.0704
     31 C           3.5389   -2.7882   19.0489 C.3     1  UNL1        0.0598
@<TRIPOS>BOND
     1    22    23    1
     2    23    24    2
     3    24    25    1
     4    25    26    2
     5    26    27    1
     6    27    28    2
     7    28    29    1
     8    29    21    1
     9    21     1    1
    10     1     2   ar
    11     2     3   ar
    12     3     4   ar
    13     4     8    1
    14     8    10    1
    15    10    11    1
    16    11    12   ar
    17    12    13   ar
    18    13    14   ar
    19    14    17    1
    20    17    18    1
    21    17    19    1
    22    17    20    1
    23    14    15   ar
    24    15    16   ar
    25     4     5   ar
    26     5     6    1
    27     5     7   ar
    28    29    30    2
    29    30    31    1
    30    31    23    1
    31    30    26    1
    32     7     1   ar
    33    16    11   ar
    34     8     9    1
@<TRIPOS>MOLECULE
*****
 31 34 0 0 0
SMALL
GASTEIGER

@<TRIPOS>ATOM
      1 C           1.7511    0.8233   18.6974 C.ar    1  UNL1        0.0038
      2 C           0.9733   -0.0319   19.6532 C.ar    1  UNL1        0.0965
      3 N          -0.0857    0.5834   20.5190 N.ar    1  UNL1       -0.2274
      4 C          -0.3670    2.0541   20.4291 C.ar    1  UNL1        0.1564
      5 C           0.4109    2.9093   19.4732 C.ar    1  UNL1        0.1710
      6 F           0.1296    4.3800   19.3833 F       1  UNL1       -0.2012
      7 C           1.4699    2.2939   18.6074 C.ar    1  UNL1        0.0301
      8 N          -1.4261    2.6695   21.2949 N.pl3   1  UNL1       -0.3126
      9 H          -1.2834    2.7489   22.2658 H       1  UNL1        0.1486
     10 C          -2.7025    3.1638   20.6815 C.3     1  UNL1        0.1170
     11 C          -3.8376    3.5988   21.5603 C.ar    1  UNL1        0.0166
     12 C          -3.5756    3.9947   22.9832 C.ar    1  UNL1        0.0004
     13 C          -4.7107    4.4297   23.8619 C.ar    1  UNL1        0.0228
     14 C          -6.1080    4.4688   23.3179 C.ar    1  UNL1        0.1526
     15 N          -6.3701    4.0728   21.8949 N.ar    1  UNL1       -0.2401
     16 C          -5.2350    3.6379   21.0163 C.ar    1  UNL1        0.0961
     17 C          -7.2431    4.9038   24.1966 C.3     1  UNL1        0.4348
     18 F          -8.3782    5.3388   25.0754 F       1  UNL1       -0.1644
     19 F          -6.2823    5.6652   25.0609 F       1  UNL1       -0.1644
     20 F          -8.2040    4.1423   23.3323 F       1  UNL1       -0.1644
     21 C           2.8102    0.2079   17.8315 C.3     1  UNL1        0.0581
     22 C           3.5283   -5.3147   19.7751 C.3     1  UNL1        0.0307
     23 C           4.3162   -4.0426   19.6704 C.2     1  UNL1        0.0074
     24 C           5.7315   -3.9942   20.1649 C.2     1  UNL1        0.2278
     25 N           6.5195   -2.7221   20.0603 N.2     1  UNL1       -0.0314
     26 C           5.8921   -1.4984   19.4611 C.2     1  UNL1        0.3716
     27 N           6.4176   -0.1131   19.2275 N.2     1  UNL1       -0.0311
     28 C           5.3271    0.6948   18.5886 C.2     1  UNL1        0.2319
     29 C           4.1276   -0.1913   18.4274 C.2     1  UNL1        0.0328
     30 C           4.4768   -1.5468   18.9667 C.2     1  UNL1        0.0704
     31 C           3.6889   -2.8189   19.0713 C.3     1  UNL1        0.0598
@<TRIPOS>BOND
     1    22    23    1
     2    23    24    2
     3    24    25    1
     4    25    26    2
     5    26    27    1
     6    27    28    2
     7    28    29    1
     8    29    21    1
     9    21     1    1
    10     1     2   ar
    11     2     3   ar
    12     3     4   ar
    13     4     8    1
    14     8    10    1
    15    10    11    1
    16    11    12   ar
    17    12    13   ar
    18    13    14   ar
    19    14    17    1
    20    17    18    1
    21    17    19    1
    22    17    20    1
    23    14    15   ar
    24    15    16   ar
    25     4     5   ar
    26     5     6    1
    27     5     7   ar
    28    29    30    2
    29    30    31    1
    30    31    23    1
    31    30    26    1
    32     7     1   ar
    33    16    11   ar
    34     8     9    1
@<TRIPOS>MOLECULE
*****
 31 34 0 0 0
SMALL
GASTEIGER

@<TRIPOS>ATOM
      1 C           5.5021   -3.8794   21.5588 C.ar    1  UNL1        0.0038
      2 C           5.1370   -3.5259   22.9701 C.ar    1  UNL1        0.0965
      3 N           6.1988   -3.4705   24.0281 N.ar    1  UNL1       -0.2274
      4 C           7.6259   -3.7685   23.6748 C.ar    1  UNL1        0.1564
      5 C           7.9910   -4.1220   22.2635 C.ar    1  UNL1        0.1710
      6 F           9.4180   -4.4200   21.9102 F       1  UNL1       -0.2012
      7 C           6.9291   -4.1774   21.2055 C.ar    1  UNL1        0.0301
      8 N           8.6877   -3.7131   24.7329 N.pl3   1  UNL1       -0.3126
      9 H           9.2419   -2.9055   24.8322 H       1  UNL1        0.1486
     10 C           8.9051   -4.8881   25.6395 C.3     1  UNL1        0.1170
     11 C           8.3891   -4.8545   27.0476 C.ar    1  UNL1        0.0166
     12 C           6.9817   -5.2820   27.3410 C.ar    1  UNL1        0.0004
     13 C           6.4657   -5.2484   28.7491 C.ar    1  UNL1        0.0228
     14 C           7.3572   -4.7872   29.8637 C.ar    1  UNL1        0.1526
     15 N           8.7648   -4.3597   29.5702 N.ar    1  UNL1       -0.2401
     16 C           9.2807   -4.3933   28.1622 C.ar    1  UNL1        0.0961
     17 C           6.8412   -4.7536   31.2718 C.3     1  UNL1        0.4348
     18 F           6.3252   -4.7200   32.6798 F       1  UNL1       -0.1644
     19 F           7.6023   -6.0088   31.5806 F       1  UNL1       -0.1644
     20 F           6.0801   -3.4985   30.9629 F       1  UNL1       -0.1644
     21 C           4.4402   -3.9348   20.5008 C.3     1  UNL1        0.0581
     22 C           0.2896    0.2561   20.5028 C.3     1  UNL1        0.0307
     23 C           1.4620   -0.1722   19.6709 C.2     1  UNL1        0.0074
     24 C           1.8209    0.5919   18.4310 C.2     1  UNL1        0.2278
     25 N           2.9933    0.1637   17.5991 N.2     1  UNL1       -0.0314
     26 C           3.8067   -1.0287   18.0070 C.2     1  UNL1        0.3716
     27 N           5.0080   -1.6826   17.3911 N.2     1  UNL1       -0.0311
     28 C           5.3916   -2.8508   18.2503 C.2     1  UNL1        0.2319
     29 C           4.4273   -2.9190   19.3972 C.2     1  UNL1        0.0328
     30 C           3.4478   -1.7929   19.2469 C.2     1  UNL1        0.0704
     31 C           2.2755   -1.3646   20.0788 C.3     1  UNL1        0.0598
@<TRIPOS>BOND
     1    22    23    1
     2    23    24    2
     3    24    25    1
     4    25    26    2
     5    26    27    1
     6    27    28    2
     7    28    29    1
     8    29    21    1
     9    21     1    1
    10     1     2   ar
    11     2     3   ar
    12     3     4   ar
    13     4     8    1
    14     8    10    1
    15    10    11    1
    16    11    12   ar
    17    12    13   ar
    18    13    14   ar
    19    14    17    1
    20    17    18    1
    21    17    19    1
    22    17    20    1
    23    14    15   ar
    24    15    16   ar
    25     4     5   ar
    26     5     6    1
    27     5     7   ar
    28    29    30    2
    29    30    31    1
    30    31    23    1
    31    30    26    1
    32     7     1   ar
    33    16    11   ar
    34     8     9    1
@<TRIPOS>MOLECULE
*****
 31 34 0 0 0
SMALL
GASTEIGER

@<TRIPOS>ATOM
      1 C           6.9243   -3.1939   21.3785 C.ar    1  UNL1        0.0038
      2 C           7.3584   -2.1733   20.3686 C.ar    1  UNL1        0.0965
      3 N           6.4722   -1.8474   19.2030 N.ar    1  UNL1       -0.2274
      4 C           5.1519   -2.5420   19.0473 C.ar    1  UNL1        0.1564
      5 C           4.7178   -3.5627   20.0572 C.ar    1  UNL1        0.1710
      6 F           3.3975   -4.2574   19.9015 F       1  UNL1       -0.2012
      7 C           5.6040   -3.8887   21.2228 C.ar    1  UNL1        0.0301
      8 N           4.2658   -2.2161   17.8817 N.pl3   1  UNL1       -0.3126
      9 H           3.9302   -2.9373   17.3017 H       1  UNL1        0.1486
     10 C           3.8911   -0.7913   17.6000 C.3     1  UNL1        0.1170
     11 C           2.8780   -0.0978   18.4617 C.ar    1  UNL1        0.0166
     12 C           2.0952   -0.8786   19.4754 C.ar    1  UNL1        0.0004
     13 C           1.0821   -0.1851   20.3372 C.ar    1  UNL1        0.0228
     14 C           0.8518    1.2893   20.1853 C.ar    1  UNL1        0.1526
     15 N           1.6346    2.0702   19.1716 N.ar    1  UNL1       -0.2401
     16 C           2.6476    1.3766   18.3099 C.ar    1  UNL1        0.0961
     17 C          -0.1613    1.9829   21.0471 C.3     1  UNL1        0.4348
     18 F          -1.1744    2.6764   21.9089 F       1  UNL1       -0.1644
     19 F          -0.5454    2.8582   19.8912 F       1  UNL1       -0.1644
     20 F           0.2229    1.1075   22.2031 F       1  UNL1       -0.1644
     21 C           7.8104   -3.5199   22.5440 C.3     1  UNL1        0.0581
     22 C           6.1704   -5.3991   27.8892 C.3     1  UNL1        0.0307
     23 C           6.8224   -5.9416   26.6520 C.2     1  UNL1        0.0074
     24 C           7.2458   -7.3795   26.5963 C.2     1  UNL1        0.2278
     25 N           7.8977   -7.9220   25.3591 N.2     1  UNL1       -0.0314
     26 C           8.1264   -7.0266   24.1776 C.2     1  UNL1        0.3716
     27 N           8.7408   -7.2771   22.8324 N.2     1  UNL1       -0.0311
     28 C           8.6972   -5.9939   22.0566 C.2     1  UNL1        0.2319
     29 C           8.0559   -4.9504   22.9225 C.2     1  UNL1        0.0328
     30 C           7.7031   -5.5887   24.2334 C.2     1  UNL1        0.0704
     31 C           7.0511   -5.0462   25.4706 C.3     1  UNL1        0.0598
@<TRIPOS>BOND
     1    22    23    1
     2    23    24    2
     3    24    25    1
     4    25    26    2
     5    26    27    1
     6    27    28    2
     7    28    29    1
     8    29    21    1
     9    21     1    1
    10     1     2   ar
    11     2     3   ar
    12     3     4   ar
    13     4     8    1
    14     8    10    1
    15    10    11    1
    16    11    12   ar
    17    12    13   ar
    18    13    14   ar
    19    14    17    1
    20    17    18    1
    21    17    19    1
    22    17    20    1
    23    14    15   ar
    24    15    16   ar
    25     4     5   ar
    26     5     6    1
    27     5     7   ar
    28    29    30    2
    29    30    31    1
    30    31    23    1
    31    30    26    1
    32     7     1   ar
    33    16    11   ar
    34     8     9    1
@<TRIPOS>MOLECULE
*****
 31 34 0 0 0
SMALL
GASTEIGER

@<TRIPOS>ATOM
      1 C           7.9004   -5.2064   23.3962 C.ar    1  UNL1        0.0038
      2 C           7.1404   -4.2810   24.2995 C.ar    1  UNL1        0.0965
      3 N           6.7595   -4.7260   25.6804 N.ar    1  UNL1       -0.2274
      4 C           7.1387   -6.0965   26.1581 C.ar    1  UNL1        0.1564
      5 C           7.8987   -7.0219   25.2547 C.ar    1  UNL1        0.1710
      6 F           8.2779   -8.3923   25.7323 F       1  UNL1       -0.2012
      7 C           8.2796   -6.5769   23.8738 C.ar    1  UNL1        0.0301
      8 N           6.7578   -6.5415   27.5390 N.pl3   1  UNL1       -0.3126
      9 H           5.9327   -7.0600   27.6790 H       1  UNL1        0.1486
     10 C           7.6341   -6.1965   28.7065 C.3     1  UNL1        0.1170
     11 C           7.1671   -5.2005   29.7262 C.ar    1  UNL1        0.0166
     12 C           7.0387   -5.6043   31.1651 C.ar    1  UNL1        0.0004
     13 C           6.5717   -4.6083   32.1848 C.ar    1  UNL1        0.0228
     14 C           6.2330   -3.2084   31.7657 C.ar    1  UNL1        0.1526
     15 N           6.3614   -2.8046   30.3267 N.ar    1  UNL1       -0.2401
     16 C           6.8284   -3.8006   29.3071 C.ar    1  UNL1        0.0961
     17 C           5.7660   -2.2124   32.7855 C.3     1  UNL1        0.4348
     18 F           5.2990   -1.2164   33.8052 F       1  UNL1       -0.1644
     19 F           6.7976   -1.2357   32.3039 F       1  UNL1       -0.1644
     20 F           4.7344   -3.1892   33.2670 F       1  UNL1       -0.1644
     21 C           8.2813   -4.7614   22.0153 C.3     1  UNL1        0.0581
     22 C           3.1842   -4.4242   19.0660 C.3     1  UNL1        0.0307
     23 C           4.2888   -3.5165   19.5200 C.2     1  UNL1        0.0074
     24 C           4.2298   -2.0502   19.2098 C.2     1  UNL1        0.2278
     25 N           5.3343   -1.1425   19.6637 N.2     1  UNL1       -0.0314
     26 C           6.4978   -1.7011   20.4279 C.2     1  UNL1        0.3716
     27 N           7.7250   -1.0564   21.0009 N.2     1  UNL1       -0.0311
     28 C           8.5425   -2.1243   21.6653 C.2     1  UNL1        0.2319
     29 C           7.8205   -3.4290   21.5029 C.2     1  UNL1        0.0328
     30 C           6.5568   -3.1675   20.7381 C.2     1  UNL1        0.0704
     31 C           5.4523   -4.0752   20.2842 C.3     1  UNL1        0.0598
@<TRIPOS>BOND
     1    22    23    1
     2    23    24    2
     3    24    25    1
     4    25    26    2
     5    26    27    1
     6    27    28    2
     7    28    29    1
     8    29    21    1
     9    21     1    1
    10     1     2   ar
    11     2     3   ar
    12     3     4   ar
    13     4     8    1
    14     8    10    1
    15    10    11    1
    16    11    12   ar
    17    12    13   ar
    18    13    14   ar
    19    14    17    1
    20    17    18    1
    21    17    19    1
    22    17    20    1
    23    14    15   ar
    24    15    16   ar
    25     4     5   ar
    26     5     6    1
    27     5     7   ar
    28    29    30    2
    29    30    31    1
    30    31    23    1
    31    30    26    1
    32     7     1   ar
    33    16    11   ar
    34     8     9    1
@<TRIPOS>MOLECULE
*****
 31 34 0 0 0
SMALL
GASTEIGER

@<TRIPOS>ATOM
      1 C          -0.9343    2.3952   25.4909 C.ar    1  UNL1        0.0038
      2 C          -1.5827    3.2830   24.4705 C.ar    1  UNL1        0.0965
      3 N          -1.0993    3.2714   23.0506 N.ar    1  UNL1       -0.2274
      4 C           0.0327    2.3718   22.6511 C.ar    1  UNL1        0.1564
      5 C           0.6811    1.4840   23.6716 C.ar    1  UNL1        0.1710
      6 F           1.8130    0.5845   23.2721 F       1  UNL1       -0.2012
      7 C           0.1977    1.4957   25.0915 C.ar    1  UNL1        0.0301
      8 N           0.5161    2.3602   21.2312 N.pl3   1  UNL1       -0.3126
      9 H           1.0355    3.1200   20.8817 H       1  UNL1        0.1486
     10 C           0.2082    1.1908   20.3437 C.3     1  UNL1        0.1170
     11 C           1.3229    0.3421   19.8077 C.ar    1  UNL1        0.0166
     12 C           1.7822   -0.8635   20.5728 C.ar    1  UNL1        0.0004
     13 C           2.8969   -1.7122   20.0368 C.ar    1  UNL1        0.0228
     14 C           3.5523   -1.3553   18.7357 C.ar    1  UNL1        0.1526
     15 N           3.0929   -0.1496   17.9705 N.ar    1  UNL1       -0.2401
     16 C           1.9783    0.6990   18.5065 C.ar    1  UNL1        0.0961
     17 C           4.6669   -2.2039   18.1997 C.3     1  UNL1        0.4348
     18 F           5.7816   -3.0526   17.6637 F       1  UNL1       -0.1644
     19 F           5.3869   -0.9698   17.7429 F       1  UNL1       -0.1644
     20 F           3.9469   -3.4380   18.6565 F       1  UNL1       -0.1644
     21 C          -1.4177    2.4069   26.9108 C.3     1  UNL1        0.0581
     22 C           3.0605    4.8635   29.8608 C.3     1  UNL1        0.0307
     23 C           2.3251    3.5572   29.8064 C.2     1  UNL1        0.0074
     24 C           2.7274    2.4317   30.7126 C.2     1  UNL1        0.2278
     25 N           1.9921    1.1255   30.6581 N.2     1  UNL1       -0.0314
     26 C           0.8543    0.9448   29.6975 C.2     1  UNL1        0.3716
     27 N          -0.0499   -0.2195   29.4201 N.2     1  UNL1       -0.0311
     28 C          -1.0110    0.1865   28.3424 C.2     1  UNL1        0.2319
     29 C          -0.7009    1.6017   27.9538 C.2     1  UNL1        0.0328
     30 C           0.4520    2.0703   28.7913 C.2     1  UNL1        0.0704
     31 C           1.1874    3.3765   28.8457 C.3     1  UNL1        0.0598
@<TRIPOS>BOND
     1    22    23    1
     2    23    24    2
     3    24    25    1
     4    25    26    2
     5    26    27    1
     6    27    28    2
     7    28    29    1
     8    29    21    1
     9    21     1    1
    10     1     2   ar
    11     2     3   ar
    12     3     4   ar
    13     4     8    1
    14     8    10    1
    15    10    11    1
    16    11    12   ar
    17    12    13   ar
    18    13    14   ar
    19    14    17    1
    20    17    18    1
    21    17    19    1
    22    17    20    1
    23    14    15   ar
    24    15    16   ar
    25     4     5   ar
    26     5     6    1
    27     5     7   ar
    28    29    30    2
    29    30    31    1
    30    31    23    1
    31    30    26    1
    32     7     1   ar
    33    16    11   ar
    34     8     9    1
