@<TRIPOS>MOLECULE
*****
 38 40 0 0 0
SMALL
GASTEIGER

@<TRIPOS>ATOM
      1 C           6.5563   -2.8896   25.8387 C.2     1  UNL1        0.2485
      2 O           6.9952   -1.5386   25.3572 O.2     1  UNL1       -0.2726
      3 N           5.7904   -3.7992   24.9244 N.am    1  UNL1       -0.2823
      4 H           5.5023   -4.6860   25.2404 H       1  UNL1        0.1549
      5 C           5.5874   -1.9899   31.3057 C.ar    1  UNL1        0.1054
      6 C           4.9924   -1.2453   30.1475 C.ar    1  UNL1        0.0181
      7 C           5.3645   -1.6205   28.7437 C.ar    1  UNL1       -0.0011
      8 C           6.3317   -2.7403   28.4980 C.ar    1  UNL1        0.0022
      9 C           6.9268   -3.4849   29.6562 C.ar    1  UNL1       -0.0030
     10 C           6.5546   -3.1097   31.0600 C.ar    1  UNL1        0.0155
     11 C           7.8462   -4.5360   29.1084 C.3     1  UNL1        0.1206
     12 N           7.8193   -4.4410   27.6116 N.am    1  UNL1       -0.2655
     13 C           8.5926   -5.3041   26.6592 C.2     1  UNL1        0.2269
     14 C           9.4946   -6.3806   27.1861 C.3     1  UNL1        0.0949
     15 O           8.4639   -5.0908   25.1801 O.2     1  UNL1       -0.2748
     16 C           6.8833   -3.3311   27.2344 C.3     1  UNL1        0.1750
     17 S           5.2153   -1.6147   32.7095 S.O2    1  UNL1        0.0086
     18 O           3.7926   -2.0039   32.4364 O.2     1  UNL1       -0.1686
     19 O           6.6379   -1.2255   32.9826 O.2     1  UNL1       -0.1686
     20 C           5.7807   -0.4127   34.9423 C.3     1  UNL1        0.0276
     21 C           4.8431   -1.2395   34.1133 C.3     1  UNL1        0.1560
     22 C           5.4634   -3.3578   23.5286 C.ar    1  UNL1        0.0503
     23 C           6.2853   -3.8498   22.3744 C.ar    1  UNL1        0.0144
     24 C           5.9583   -3.4083   20.9786 C.ar    1  UNL1       -0.0002
     25 C           4.8094   -2.4748   20.7370 C.ar    1  UNL1        0.0182
     26 C           3.9874   -1.9827   21.8913 C.ar    1  UNL1       -0.0002
     27 C           4.3144   -2.4242   23.2870 C.ar    1  UNL1        0.0144
     28 C           4.4824   -2.0333   19.3413 C.3     1  UNL1        0.2827
     29 O           5.2619   -0.7702   19.5582 O.3     1  UNL1       -0.3692
     30 H           5.6293   -0.7671   20.4559 H       1  UNL1        0.2112
     31 C           4.1554   -1.5918   17.9455 C.3     1  UNL1        0.4311
     32 F           3.8284   -1.1503   16.5498 F       1  UNL1       -0.1669
     33 F           3.1061   -0.6652   18.4844 F       1  UNL1       -0.1669
     34 F           4.7469   -2.1031   17.5292 F       1  UNL1       -0.1669
     35 C           3.7029   -3.2963   19.1244 C.3     1  UNL1        0.4311
     36 F           2.9234   -4.5594   18.9075 F       1  UNL1       -0.1669
     37 F           2.9388   -3.0126   19.4712 F       1  UNL1       -0.1669
     38 F           4.6863   -4.2222   18.4719 F       1  UNL1       -0.1669
@<TRIPOS>BOND
     1    20    21    1
     2    21    17    1
     3    17    18    2
     4    17    19    2
     5    17     5    1
     6     5     6   ar
     7     6     7   ar
     8     7     8   ar
     9     8     9   ar
    10     9    10   ar
    11     9    11    1
    12    11    12    1
    13    12    13   am
    14    13    14    1
    15    13    15    2
    16    12    16    1
    17    16     1    1
    18     1     2    2
    19     1     3   am
    20     3    22    1
    21    22    23   ar
    22    23    24   ar
    23    24    25   ar
    24    25    28    1
    25    28    29    1
    26    28    31    1
    27    31    32    1
    28    31    33    1
    29    31    34    1
    30    28    35    1
    31    35    36    1
    32    35    37    1
    33    35    38    1
    34    25    26   ar
    35    26    27   ar
    36    10     5   ar
    37    27    22   ar
    38    16     8    1
    39     3     4    1
    40    29    30    1
@<TRIPOS>MOLECULE
*****
 38 40 0 0 0
SMALL
GASTEIGER

@<TRIPOS>ATOM
      1 C          -0.5896    2.8182   20.7011 C.2     1  UNL1        0.2485
      2 O           0.7237    3.4678   21.0222 O.2     1  UNL1       -0.2726
      3 N          -0.6213    1.4263   20.1431 N.am    1  UNL1       -0.2823
      4 H          -1.4833    0.9999   19.9324 H       1  UNL1        0.1549
      5 C          -4.2044    4.6490   24.6021 C.ar    1  UNL1        0.1054
      6 C          -2.9387    3.8781   24.8333 C.ar    1  UNL1        0.0181
      7 C          -2.0876    3.4670   23.6686 C.ar    1  UNL1       -0.0011
      8 C          -2.5021    3.8269   22.2727 C.ar    1  UNL1        0.0022
      9 C          -3.7678    4.5979   22.0415 C.ar    1  UNL1       -0.0030
     10 C          -4.6190    5.0090   23.2062 C.ar    1  UNL1        0.0155
     11 C          -3.9193    4.8081   20.5640 C.3     1  UNL1        0.1206
     12 N          -2.7472    4.1670   19.8821 N.am    1  UNL1       -0.2655
     13 C          -2.4951    4.1375   18.4036 C.2     1  UNL1        0.2269
     14 C          -3.4652    4.7904   17.4642 C.3     1  UNL1        0.0949
     15 O          -1.2729    3.4550   17.8647 O.2     1  UNL1       -0.2748
     16 C          -1.8713    3.5606   20.9381 C.3     1  UNL1        0.1750
     17 S          -5.0556    5.0601   25.7668 S.O2    1  UNL1        0.0086
     18 O          -5.5383    6.2514   24.9936 O.2     1  UNL1       -0.1686
     19 O          -4.5729    3.8688   26.5400 O.2     1  UNL1       -0.1686
     20 C          -7.0562    6.4124   26.7252 C.3     1  UNL1        0.0276
     21 C          -5.9067    5.4712   26.9315 C.3     1  UNL1        0.1560
     22 C           0.6604    0.6839   19.9062 C.ar    1  UNL1        0.0503
     23 C           1.3782    0.8257   18.5967 C.ar    1  UNL1        0.0144
     24 C           2.6599    0.0833   18.3598 C.ar    1  UNL1       -0.0002
     25 C           3.2238   -0.8009   19.4322 C.ar    1  UNL1        0.0182
     26 C           2.5060   -0.9427   20.7416 C.ar    1  UNL1       -0.0002
     27 C           1.2243   -0.2003   20.9786 C.ar    1  UNL1        0.0144
     28 C           4.5055   -1.5433   19.1952 C.3     1  UNL1        0.2827
     29 O           5.2562   -0.2447   19.1874 O.3     1  UNL1       -0.3692
     30 H           4.6366    0.4879   19.3302 H       1  UNL1        0.2112
     31 C           5.7872   -2.2856   18.9583 C.3     1  UNL1        0.4311
     32 F           7.0688   -3.0280   18.7213 F       1  UNL1       -0.1669
     33 F           6.2847   -1.8571   20.3069 F       1  UNL1       -0.1669
     34 F           5.5878   -2.5902   18.1508 F       1  UNL1       -0.1669
     35 C           3.7548   -2.8418   19.2031 C.3     1  UNL1        0.4311
     36 F           3.0040   -4.1404   19.2109 F       1  UNL1       -0.1669
     37 F           3.3618   -2.7442   18.4153 F       1  UNL1       -0.1669
     38 F           4.1342   -3.4726   20.5100 F       1  UNL1       -0.1669
@<TRIPOS>BOND
     1    20    21    1
     2    21    17    1
     3    17    18    2
     4    17    19    2
     5    17     5    1
     6     5     6   ar
     7     6     7   ar
     8     7     8   ar
     9     8     9   ar
    10     9    10   ar
    11     9    11    1
    12    11    12    1
    13    12    13   am
    14    13    14    1
    15    13    15    2
    16    12    16    1
    17    16     1    1
    18     1     2    2
    19     1     3   am
    20     3    22    1
    21    22    23   ar
    22    23    24   ar
    23    24    25   ar
    24    25    28    1
    25    28    29    1
    26    28    31    1
    27    31    32    1
    28    31    33    1
    29    31    34    1
    30    28    35    1
    31    35    36    1
    32    35    37    1
    33    35    38    1
    34    25    26   ar
    35    26    27   ar
    36    10     5   ar
    37    27    22   ar
    38    16     8    1
    39     3     4    1
    40    29    30    1
@<TRIPOS>MOLECULE
*****
 38 40 0 0 0
SMALL
GASTEIGER

@<TRIPOS>ATOM
      1 C          -0.8953    3.2881   20.6566 C.2     1  UNL1        0.2485
      2 O          -0.8282    3.1925   22.1520 O.2     1  UNL1       -0.2726
      3 N          -2.1747    3.6956   19.9879 N.am    1  UNL1       -0.2823
      4 H          -2.2188    3.7583   19.0064 H       1  UNL1        0.1549
      5 C           2.7911   -0.7027   19.2004 C.ar    1  UNL1        0.1054
      6 C           1.6325   -0.8425   20.1428 C.ar    1  UNL1        0.0181
      7 C           0.7442    0.3341   20.4190 C.ar    1  UNL1       -0.0011
      8 C           1.0143    1.6506   19.7528 C.ar    1  UNL1        0.0022
      9 C           2.1728    1.7904   18.8104 C.ar    1  UNL1       -0.0030
     10 C           3.0612    0.6138   18.5342 C.ar    1  UNL1        0.0155
     11 C           2.1914    3.2027   18.3050 C.3     1  UNL1        0.1206
     12 N           1.0443    3.9356   18.9350 N.am    1  UNL1       -0.2655
     13 C           0.6873    5.3750   18.7099 C.2     1  UNL1        0.2269
     14 C           1.5122    6.2158   17.7811 C.3     1  UNL1        0.0949
     15 O          -0.4944    5.9736   19.4134 O.2     1  UNL1       -0.2748
     16 C           0.3168    2.9763   19.8299 C.3     1  UNL1        0.1750
     17 S           3.6795   -1.8793   18.9242 S.O2    1  UNL1        0.0086
     18 O           3.3921   -2.4179   20.2944 O.2     1  UNL1       -0.1686
     19 O           3.9668   -1.3407   17.5541 O.2     1  UNL1       -0.1686
     20 C           4.1103   -4.4402   19.0005 C.3     1  UNL1        0.0276
     21 C           4.5679   -3.0559   18.6480 C.3     1  UNL1        0.1560
     22 C          -3.3869    4.0073   20.8146 C.ar    1  UNL1        0.0503
     23 C          -3.8336    5.4292   20.9841 C.ar    1  UNL1        0.0144
     24 C          -5.0458    5.7410   21.8109 C.ar    1  UNL1       -0.0002
     25 C          -5.8112    4.6310   22.4681 C.ar    1  UNL1        0.0182
     26 C          -5.3644    3.2091   22.2986 C.ar    1  UNL1       -0.0002
     27 C          -4.1523    2.8973   21.4719 C.ar    1  UNL1        0.0144
     28 C          -7.0233    4.9427   23.2948 C.3     1  UNL1        0.2827
     29 O          -7.8386    5.0891   22.0443 O.3     1  UNL1       -0.3692
     30 H          -7.2753    4.9306   21.2707 H       1  UNL1        0.2112
     31 C          -8.2355    5.2545   24.1216 C.3     1  UNL1        0.4311
     32 F          -9.4476    5.5663   24.9483 F       1  UNL1       -0.1669
     33 F          -8.7991    3.9008   23.8058 F       1  UNL1       -0.1669
     34 F          -7.9924    6.0704   24.3661 F       1  UNL1       -0.1669
     35 C          -6.2081    4.7964   24.5454 C.3     1  UNL1        0.4311
     36 F          -5.3928    4.6500   25.7959 F       1  UNL1       -0.1669
     37 F          -6.4816    3.9811   24.7578 F       1  UNL1       -0.1669
     38 F          -5.4608    6.0931   24.6454 F       1  UNL1       -0.1669
@<TRIPOS>BOND
     1    20    21    1
     2    21    17    1
     3    17    18    2
     4    17    19    2
     5    17     5    1
     6     5     6   ar
     7     6     7   ar
     8     7     8   ar
     9     8     9   ar
    10     9    10   ar
    11     9    11    1
    12    11    12    1
    13    12    13   am
    14    13    14    1
    15    13    15    2
    16    12    16    1
    17    16     1    1
    18     1     2    2
    19     1     3   am
    20     3    22    1
    21    22    23   ar
    22    23    24   ar
    23    24    25   ar
    24    25    28    1
    25    28    29    1
    26    28    31    1
    27    31    32    1
    28    31    33    1
    29    31    34    1
    30    28    35    1
    31    35    36    1
    32    35    37    1
    33    35    38    1
    34    25    26   ar
    35    26    27   ar
    36    10     5   ar
    37    27    22   ar
    38    16     8    1
    39     3     4    1
    40    29    30    1
@<TRIPOS>MOLECULE
*****
 38 40 0 0 0
SMALL
GASTEIGER

@<TRIPOS>ATOM
      1 C           1.7342    1.3248   25.0878 C.2     1  UNL1        0.2485
      2 O           2.9260    2.1225   25.5274 O.2     1  UNL1       -0.2726
      3 N           0.7546    0.8181   26.1044 N.am    1  UNL1       -0.2823
      4 H          -0.0276    0.2945   25.8160 H       1  UNL1        0.1549
      5 C           3.4129   -1.7902   20.7158 C.ar    1  UNL1        0.1054
      6 C           3.9501   -1.8330   22.1156 C.ar    1  UNL1        0.0181
      7 C           3.3814   -0.9248   23.1652 C.ar    1  UNL1       -0.0011
      8 C           2.2755    0.0262   22.8151 C.ar    1  UNL1        0.0022
      9 C           1.7383    0.0689   21.4152 C.ar    1  UNL1       -0.0030
     10 C           2.3070   -0.8393   20.3656 C.ar    1  UNL1        0.0155
     11 C           0.6528    1.1031   21.3667 C.3     1  UNL1        0.1206
     12 N           0.5192    1.6994   22.7366 N.am    1  UNL1       -0.2655
     13 C          -0.4477    2.7728   23.1404 C.2     1  UNL1        0.2269
     14 C          -1.3963    3.3466   22.1301 C.3     1  UNL1        0.0949
     15 O          -0.4658    3.2725   24.5546 O.2     1  UNL1       -0.2748
     16 C           1.5221    1.0338   23.6317 C.3     1  UNL1        0.1750
     17 S           3.9815   -2.6984   19.6661 S.O2    1  UNL1        0.0086
     18 O           3.7389   -1.6466   18.6246 O.2     1  UNL1       -0.1686
     19 O           4.2241   -3.7503   20.7076 O.2     1  UNL1       -0.1686
     20 C           4.5084   -5.0937   18.8086 C.3     1  UNL1        0.0276
     21 C           4.5502   -3.6067   18.6164 C.3     1  UNL1        0.1560
     22 C           0.9668    1.1091   27.5605 C.ar    1  UNL1        0.0503
     23 C           0.5615    2.4377   28.1267 C.ar    1  UNL1        0.0144
     24 C           0.7737    2.7287   29.5828 C.ar    1  UNL1       -0.0002
     25 C           1.3911    1.6911   30.4728 C.ar    1  UNL1        0.0182
     26 C           1.7964    0.3625   29.9067 C.ar    1  UNL1       -0.0002
     27 C           1.5842    0.0715   28.4506 C.ar    1  UNL1        0.0144
     28 C           1.6033    1.9821   31.9290 C.3     1  UNL1        0.2827
     29 O           0.1593    1.6796   32.1998 O.3     1  UNL1       -0.3692
     30 H          -0.2813    1.4369   31.3704 H       1  UNL1        0.2112
     31 C           1.8155    2.2731   33.3851 C.3     1  UNL1        0.4311
     32 F           2.0277    2.5641   34.8412 F       1  UNL1       -0.1669
     33 F           1.0277    3.5420   33.2463 F       1  UNL1       -0.1669
     34 F           2.2925    1.5503   33.5712 F       1  UNL1       -0.1669
     35 C           3.0473    2.2847   31.6581 C.3     1  UNL1        0.4311
     36 F           4.4912    2.5872   31.3872 F       1  UNL1       -0.1669
     37 F           2.9449    3.1453   31.4753 F       1  UNL1       -0.1669
     38 F           3.7384    0.9692   31.8629 F       1  UNL1       -0.1669
@<TRIPOS>BOND
     1    20    21    1
     2    21    17    1
     3    17    18    2
     4    17    19    2
     5    17     5    1
     6     5     6   ar
     7     6     7   ar
     8     7     8   ar
     9     8     9   ar
    10     9    10   ar
    11     9    11    1
    12    11    12    1
    13    12    13   am
    14    13    14    1
    15    13    15    2
    16    12    16    1
    17    16     1    1
    18     1     2    2
    19     1     3   am
    20     3    22    1
    21    22    23   ar
    22    23    24   ar
    23    24    25   ar
    24    25    28    1
    25    28    29    1
    26    28    31    1
    27    31    32    1
    28    31    33    1
    29    31    34    1
    30    28    35    1
    31    35    36    1
    32    35    37    1
    33    35    38    1
    34    25    26   ar
    35    26    27   ar
    36    10     5   ar
    37    27    22   ar
    38    16     8    1
    39     3     4    1
    40    29    30    1
@<TRIPOS>MOLECULE
*****
 38 40 0 0 0
SMALL
GASTEIGER

@<TRIPOS>ATOM
      1 C           4.8989   -1.0383   32.3542 C.2     1  UNL1        0.2485
      2 O           3.5802   -1.6664   32.6955 O.2     1  UNL1       -0.2726
      3 N           5.4669    0.0372   33.2321 N.am    1  UNL1       -0.2823
      4 H           6.3324    0.4495   33.0082 H       1  UNL1        0.1549
      5 C           7.8166   -5.2424   30.0199 C.ar    1  UNL1        0.1054
      6 C           7.1904   -5.2241   31.3828 C.ar    1  UNL1        0.0181
      7 C           6.4424   -4.0101   31.8483 C.ar    1  UNL1       -0.0011
      8 C           6.3206   -2.8143   30.9510 C.ar    1  UNL1        0.0022
      9 C           6.9468   -2.8326   29.5881 C.ar    1  UNL1       -0.0030
     10 C           7.6947   -4.0466   29.1225 C.ar    1  UNL1        0.0155
     11 C           6.6627   -1.5150   28.9297 C.3     1  UNL1        0.1206
     12 N           5.8610   -0.6825   29.8858 N.am    1  UNL1       -0.2655
     13 C           5.3588    0.7089   29.6365 C.2     1  UNL1        0.2269
     14 C           5.6500    1.3887   28.3315 C.3     1  UNL1        0.0949
     15 O           4.5655    1.4203   30.6922 O.2     1  UNL1       -0.2748
     16 C           5.6496   -1.4855   31.1350 C.3     1  UNL1        0.1750
     17 S           8.5645   -6.4564   29.5543 S.O2    1  UNL1        0.0086
     18 O           9.1300   -6.6363   30.9319 O.2     1  UNL1       -0.1686
     19 O           7.9990   -6.2765   28.1767 O.2     1  UNL1       -0.1686
     20 C           8.8342   -8.4312   27.8878 C.3     1  UNL1        0.0276
     21 C           9.3125   -7.6704   29.0888 C.3     1  UNL1        0.1560
     22 C           4.7162    0.4845   34.4513 C.ar    1  UNL1        0.0503
     23 C           3.5848    1.4605   34.3194 C.ar    1  UNL1        0.0144
     24 C           2.8342    1.9078   35.5386 C.ar    1  UNL1       -0.0002
     25 C           3.2148    1.3790   36.8897 C.ar    1  UNL1        0.0182
     26 C           4.3461    0.4030   37.0216 C.ar    1  UNL1       -0.0002
     27 C           5.0968   -0.0443   35.8024 C.ar    1  UNL1        0.0144
     28 C           2.4641    1.8263   38.1089 C.3     1  UNL1        0.2827
     29 O           2.3298    0.3989   38.5499 O.3     1  UNL1       -0.3692
     30 H           2.7585   -0.1815   37.9016 H       1  UNL1        0.2112
     31 C           1.7134    2.2736   39.3281 C.3     1  UNL1        0.4311
     32 F           0.9627    2.7208   40.5473 F       1  UNL1       -0.1669
     33 F           0.5731    1.3727   38.9564 F       1  UNL1       -0.1669
     34 F           2.3277    2.8337   39.6336 F       1  UNL1       -0.1669
     35 C           2.5984    3.2537   37.6679 C.3     1  UNL1        0.4311
     36 F           2.7327    4.6811   37.2270 F       1  UNL1       -0.1669
     37 F           3.4774    3.3129   37.7597 F       1  UNL1       -0.1669
     38 F           1.1917    3.6713   37.3568 F       1  UNL1       -0.1669
@<TRIPOS>BOND
     1    20    21    1
     2    21    17    1
     3    17    18    2
     4    17    19    2
     5    17     5    1
     6     5     6   ar
     7     6     7   ar
     8     7     8   ar
     9     8     9   ar
    10     9    10   ar
    11     9    11    1
    12    11    12    1
    13    12    13   am
    14    13    14    1
    15    13    15    2
    16    12    16    1
    17    16     1    1
    18     1     2    2
    19     1     3   am
    20     3    22    1
    21    22    23   ar
    22    23    24   ar
    23    24    25   ar
    24    25    28    1
    25    28    29    1
    26    28    31    1
    27    31    32    1
    28    31    33    1
    29    31    34    1
    30    28    35    1
    31    35    36    1
    32    35    37    1
    33    35    38    1
    34    25    26   ar
    35    26    27   ar
    36    10     5   ar
    37    27    22   ar
    38    16     8    1
    39     3     4    1
    40    29    30    1
@<TRIPOS>MOLECULE
*****
 38 40 0 0 0
SMALL
GASTEIGER

@<TRIPOS>ATOM
      1 C           5.7515   -1.7499   25.9488 C.2     1  UNL1        0.2485
      2 O           6.5637   -0.6702   25.2972 O.2     1  UNL1       -0.2726
      3 N           4.7944   -2.5653   25.1309 N.am    1  UNL1       -0.2823
      4 H           4.2612   -3.2739   25.5584 H       1  UNL1        0.1549
      5 C           4.4243    0.0485   31.1102 C.ar    1  UNL1        0.1054
      6 C           4.0315    0.6756   29.8055 C.ar    1  UNL1        0.0181
      7 C           4.4762    0.0584   28.5127 C.ar    1  UNL1       -0.0011
      8 C           5.3137   -1.1859   28.5246 C.ar    1  UNL1        0.0022
      9 C           5.7066   -1.8130   29.8294 C.ar    1  UNL1       -0.0030
     10 C           5.2619   -1.1958   31.1222 C.ar    1  UNL1        0.0155
     11 C           6.5321   -3.0289   29.5293 C.3     1  UNL1        0.1206
     12 N           6.6494   -3.1533   28.0391 N.am    1  UNL1       -0.2655
     13 C           7.3898   -4.2281   27.2995 C.2     1  UNL1        0.2269
     14 C           8.1002   -5.3085   28.0597 C.3     1  UNL1        0.0949
     15 O           7.4197   -4.2223   25.7998 O.2     1  UNL1       -0.2748
     16 C           5.8964   -2.0142   27.4182 C.3     1  UNL1        0.1750
     17 S           3.9796    0.6657   32.4030 S.O2    1  UNL1        0.0086
     18 O           3.4285   -0.6575   32.8451 O.2     1  UNL1       -0.1686
     19 O           4.5308    1.9889   31.9609 O.2     1  UNL1       -0.1686
     20 C           2.2576    2.0672   33.7522 C.3     1  UNL1        0.0276
     21 C           3.5350    1.2829   33.6958 C.3     1  UNL1        0.1560
     22 C           4.6495   -2.3009   23.6615 C.ar    1  UNL1        0.0503
     23 C           3.6168   -1.3290   23.1725 C.ar    1  UNL1        0.0144
     24 C           3.4719   -1.0647   21.7031 C.ar    1  UNL1       -0.0002
     25 C           4.3596   -1.7722   20.7226 C.ar    1  UNL1        0.0182
     26 C           5.3922   -2.7442   21.2116 C.ar    1  UNL1       -0.0002
     27 C           5.5371   -3.0085   22.6810 C.ar    1  UNL1        0.0144
     28 C           4.2147   -1.5079   19.2532 C.3     1  UNL1        0.2827
     29 O           4.7862   -0.1343   19.4440 O.3     1  UNL1       -0.3692
     30 H           4.9978    0.0007   20.3810 H       1  UNL1        0.2112
     31 C           4.0698   -1.2436   17.7839 C.3     1  UNL1        0.4311
     32 F           3.9249   -0.9792   16.3145 F       1  UNL1       -0.1669
     33 F           5.5602   -1.3045   17.6259 F       1  UNL1       -0.1669
     34 F           3.1858   -1.1889   17.7707 F       1  UNL1       -0.1669
     35 C           3.6432   -2.8816   19.0625 C.3     1  UNL1        0.4311
     36 F           3.0716   -4.2552   18.8717 F       1  UNL1       -0.1669
     37 F           2.8800   -2.7413   19.4897 F       1  UNL1       -0.1669
     38 F           4.7001   -3.6099   18.2864 F       1  UNL1       -0.1669
@<TRIPOS>BOND
     1    20    21    1
     2    21    17    1
     3    17    18    2
     4    17    19    2
     5    17     5    1
     6     5     6   ar
     7     6     7   ar
     8     7     8   ar
     9     8     9   ar
    10     9    10   ar
    11     9    11    1
    12    11    12    1
    13    12    13   am
    14    13    14    1
    15    13    15    2
    16    12    16    1
    17    16     1    1
    18     1     2    2
    19     1     3   am
    20     3    22    1
    21    22    23   ar
    22    23    24   ar
    23    24    25   ar
    24    25    28    1
    25    28    29    1
    26    28    31    1
    27    31    32    1
    28    31    33    1
    29    31    34    1
    30    28    35    1
    31    35    36    1
    32    35    37    1
    33    35    38    1
    34    25    26   ar
    35    26    27   ar
    36    10     5   ar
    37    27    22   ar
    38    16     8    1
    39     3     4    1
    40    29    30    1
@<TRIPOS>MOLECULE
*****
 38 40 0 0 0
SMALL
GASTEIGER

@<TRIPOS>ATOM
      1 C           3.2419    0.2655   26.5051 C.2     1  UNL1        0.2485
      2 O           3.9830    1.4619   27.0239 O.2     1  UNL1       -0.2726
      3 N           2.9880   -0.9076   27.4048 N.am    1  UNL1       -0.2823
      4 H           2.5015   -1.6929   27.0644 H       1  UNL1        0.1549
      5 C           3.9990   -1.9850   21.4062 C.ar    1  UNL1        0.1054
      6 C           4.7869   -2.2761   22.6490 C.ar    1  UNL1        0.0181
      7 C           4.4463   -1.5799   23.9332 C.ar    1  UNL1       -0.0011
      8 C           3.3179   -0.5925   23.9747 C.ar    1  UNL1        0.0022
      9 C           2.5300   -0.3014   22.7319 C.ar    1  UNL1       -0.0030
     10 C           2.8706   -0.9976   21.4477 C.ar    1  UNL1        0.0155
     11 C           1.4799    0.7131   23.0757 C.3     1  UNL1        0.1206
     12 N           1.6187    1.0489   24.5310 N.am    1  UNL1       -0.2655
     13 C           0.7706    2.0209   25.2965 C.2     1  UNL1        0.2269
     14 C          -0.3358    2.7591   24.6029 C.3     1  UNL1        0.0949
     15 O           1.0288    2.2548   26.7554 O.2     1  UNL1       -0.2748
     16 C           2.7547    0.2420   25.0866 C.3     1  UNL1        0.1750
     17 S           4.3396   -2.6812   20.1220 S.O2    1  UNL1        0.0086
     18 O           2.9178   -2.5366   19.6665 O.2     1  UNL1       -0.1686
     19 O           5.7615   -2.8258   20.5774 O.2     1  UNL1       -0.1686
     20 C           4.5694   -4.8702   18.7416 C.3     1  UNL1        0.0276
     21 C           4.6802   -3.3775   18.8377 C.3     1  UNL1        0.1560
     22 C           3.4752   -0.8841   28.8233 C.ar    1  UNL1        0.0503
     23 C           4.9199   -1.1523   29.1246 C.ar    1  UNL1        0.0144
     24 C           5.4071   -1.1288   30.5431 C.ar    1  UNL1       -0.0002
     25 C           4.4497   -0.8371   31.6603 C.ar    1  UNL1        0.0182
     26 C           3.0049   -0.5689   31.3589 C.ar    1  UNL1       -0.0002
     27 C           2.5177   -0.5924   29.9405 C.ar    1  UNL1        0.0144
     28 C           4.9369   -0.8137   33.0787 C.3     1  UNL1        0.2827
     29 O           4.5021    0.6164   33.2044 O.3     1  UNL1       -0.3692
     30 H           4.1113    0.9104   32.3667 H       1  UNL1        0.2112
     31 C           5.4241   -0.7902   34.4972 C.3     1  UNL1        0.4311
     32 F           5.9113   -0.7667   35.9157 F       1  UNL1       -0.1669
     33 F           4.0591   -1.1913   34.9727 F       1  UNL1       -0.1669
     34 F           6.2591   -0.5534   34.3206 F       1  UNL1       -0.1669
     35 C           5.3717   -2.2438   32.9531 C.3     1  UNL1        0.4311
     36 F           5.8064   -3.6738   32.8274 F       1  UNL1       -0.1669
     37 F           4.5687   -2.6084   33.0357 F       1  UNL1       -0.1669
     38 F           6.8580   -2.1566   32.7708 F       1  UNL1       -0.1669
@<TRIPOS>BOND
     1    20    21    1
     2    21    17    1
     3    17    18    2
     4    17    19    2
     5    17     5    1
     6     5     6   ar
     7     6     7   ar
     8     7     8   ar
     9     8     9   ar
    10     9    10   ar
    11     9    11    1
    12    11    12    1
    13    12    13   am
    14    13    14    1
    15    13    15    2
    16    12    16    1
    17    16     1    1
    18     1     2    2
    19     1     3   am
    20     3    22    1
    21    22    23   ar
    22    23    24   ar
    23    24    25   ar
    24    25    28    1
    25    28    29    1
    26    28    31    1
    27    31    32    1
    28    31    33    1
    29    31    34    1
    30    28    35    1
    31    35    36    1
    32    35    37    1
    33    35    38    1
    34    25    26   ar
    35    26    27   ar
    36    10     5   ar
    37    27    22   ar
    38    16     8    1
    39     3     4    1
    40    29    30    1
@<TRIPOS>MOLECULE
*****
 38 40 0 0 0
SMALL
GASTEIGER

@<TRIPOS>ATOM
      1 C           3.5516    0.1194   26.4306 C.2     1  UNL1        0.2485
      2 O           4.7984    0.8362   26.0046 O.2     1  UNL1       -0.2726
      3 N           2.9238   -0.8970   25.5235 N.am    1  UNL1       -0.2823
      4 H           2.1055   -1.3675   25.8031 H       1  UNL1        0.1549
      5 C           4.0877   -0.4637   31.9992 C.ar    1  UNL1        0.1054
      6 C           5.0275   -0.9650   30.9430 C.ar    1  UNL1        0.0181
      7 C           4.7275   -0.7189   29.4941 C.ar    1  UNL1       -0.0011
      8 C           3.4876    0.0284   29.1013 C.ar    1  UNL1        0.0022
      9 C           2.5478    0.5296   30.1574 C.ar    1  UNL1       -0.0030
     10 C           2.8479    0.2836   31.6064 C.ar    1  UNL1        0.0155
     11 C           1.4118    1.2300   29.4725 C.3     1  UNL1        0.1206
     12 N           1.6496    1.1616   27.9931 N.am    1  UNL1       -0.2655
     13 C           0.7605    1.7351   26.9297 C.2     1  UNL1        0.2269
     14 C          -0.4979    2.4560   27.3127 C.3     1  UNL1        0.0949
     15 O           1.1299    1.5877   25.4834 O.2     1  UNL1       -0.2748
     16 C           2.9325    0.4189   27.7637 C.3     1  UNL1        0.1750
     17 S           4.3877   -0.7097   33.4481 S.O2    1  UNL1        0.0086
     18 O           3.6240    0.5276   33.8164 O.2     1  UNL1       -0.1686
     19 O           5.1515   -1.9471   33.0799 O.2     1  UNL1       -0.1686
     20 C           5.8354   -0.2495   35.5558 C.3     1  UNL1        0.0276
     21 C           4.6878   -0.9558   34.8971 C.3     1  UNL1        0.1560
     22 C           3.5429   -1.1965   24.1905 C.ar    1  UNL1        0.0503
     23 C           4.7255   -2.1151   24.1021 C.ar    1  UNL1        0.0144
     24 C           5.3446   -2.4146   22.7691 C.ar    1  UNL1       -0.0002
     25 C           4.7812   -1.7956   21.5244 C.ar    1  UNL1        0.0182
     26 C           3.5986   -0.8770   21.6127 C.ar    1  UNL1       -0.0002
     27 C           2.9795   -0.5775   22.9457 C.ar    1  UNL1        0.0144
     28 C           5.4003   -2.0952   20.1913 C.3     1  UNL1        0.2827
     29 O           6.6351   -1.3462   20.5965 O.3     1  UNL1       -0.3692
     30 H           6.5239   -1.0022   21.4966 H       1  UNL1        0.2112
     31 C           6.0194   -2.3947   18.8583 C.3     1  UNL1        0.4311
     32 F           6.6385   -2.6942   17.5253 F       1  UNL1       -0.1669
     33 F           5.8920   -0.9502   18.4746 F       1  UNL1       -0.1669
     34 F           6.1386   -3.2629   18.9873 F       1  UNL1       -0.1669
     35 C           4.1654   -2.8441   19.7861 C.3     1  UNL1        0.4311
     36 F           2.9306   -3.5930   19.3809 F       1  UNL1       -0.1669
     37 F           3.8696   -2.2534   19.1961 F       1  UNL1       -0.1669
     38 F           4.2092   -4.0925   20.6166 F       1  UNL1       -0.1669
@<TRIPOS>BOND
     1    20    21    1
     2    21    17    1
     3    17    18    2
     4    17    19    2
     5    17     5    1
     6     5     6   ar
     7     6     7   ar
     8     7     8   ar
     9     8     9   ar
    10     9    10   ar
    11     9    11    1
    12    11    12    1
    13    12    13   am
    14    13    14    1
    15    13    15    2
    16    12    16    1
    17    16     1    1
    18     1     2    2
    19     1     3   am
    20     3    22    1
    21    22    23   ar
    22    23    24   ar
    23    24    25   ar
    24    25    28    1
    25    28    29    1
    26    28    31    1
    27    31    32    1
    28    31    33    1
    29    31    34    1
    30    28    35    1
    31    35    36    1
    32    35    37    1
    33    35    38    1
    34    25    26   ar
    35    26    27   ar
    36    10     5   ar
    37    27    22   ar
    38    16     8    1
    39     3     4    1
    40    29    30    1
@<TRIPOS>MOLECULE
*****
 38 40 0 0 0
SMALL
GASTEIGER

@<TRIPOS>ATOM
      1 C           4.5102   -0.6514   27.1040 C.2     1  UNL1        0.2485
      2 O           4.9367    0.7848   27.0298 O.2     1  UNL1       -0.2726
      3 N           3.4750   -1.0756   28.1032 N.am    1  UNL1       -0.2823
      4 H           3.1950   -2.0182   28.1519 H       1  UNL1        0.1549
      5 C           4.4532   -2.7520   21.8867 C.ar    1  UNL1        0.1054
      6 C           3.5969   -1.6442   22.4247 C.ar    1  UNL1        0.0181
      7 C           3.7454   -1.2070   23.8518 C.ar    1  UNL1       -0.0011
      8 C           4.7502   -1.8775   24.7410 C.ar    1  UNL1        0.0022
      9 C           5.6065   -2.9852   24.2030 C.ar    1  UNL1       -0.0030
     10 C           5.4581   -3.4225   22.7759 C.ar    1  UNL1        0.0155
     11 C           6.5045   -3.4557   25.3087 C.3     1  UNL1        0.1206
     12 N           6.2031   -2.6387   26.5299 N.am    1  UNL1       -0.2655
     13 C           6.8690   -2.7734   27.8673 C.2     1  UNL1        0.2269
     14 C           7.9436   -3.8001   28.0701 C.3     1  UNL1        0.0949
     15 O           6.4603   -1.8814   29.0019 O.2     1  UNL1       -0.2748
     16 C           5.1189   -1.6633   26.1791 C.3     1  UNL1        0.1750
     17 S           4.3047   -3.1892   20.4595 S.O2    1  UNL1        0.0086
     18 O           4.6751   -4.5893   20.8500 O.2     1  UNL1       -0.1686
     19 O           3.9344   -1.7890   20.0691 O.2     1  UNL1       -0.1686
     20 C           4.4781   -5.0388   18.6433 C.3     1  UNL1        0.0276
     21 C           4.1563   -3.6264   19.0324 C.3     1  UNL1        0.1560
     22 C           2.8663   -0.0636   29.0281 C.ar    1  UNL1        0.0503
     23 C           3.4878    0.1972   30.3681 C.ar    1  UNL1        0.0144
     24 C           2.8791    1.2092   31.2930 C.ar    1  UNL1       -0.0002
     25 C           1.6489    1.9603   30.8780 C.ar    1  UNL1        0.0182
     26 C           1.0274    1.6995   29.5380 C.ar    1  UNL1       -0.0002
     27 C           1.6361    0.6875   28.6131 C.ar    1  UNL1        0.0144
     28 C           1.0402    2.9723   31.8029 C.3     1  UNL1        0.2827
     29 O           0.5860    1.8686   32.7115 O.3     1  UNL1       -0.3692
     30 H           0.8592    1.0137   32.3434 H       1  UNL1        0.2112
     31 C           0.4315    3.9842   32.7278 C.3     1  UNL1        0.4311
     32 F          -0.1772    4.9961   33.6527 F       1  UNL1       -0.1669
     33 F           1.6605    3.9385   33.5865 F       1  UNL1       -0.1669
     34 F          -0.3326    4.0838   32.2910 F       1  UNL1       -0.1669
     35 C           1.4945    4.0759   30.8943 C.3     1  UNL1        0.4311
     36 F           1.9488    5.1796   29.9857 F       1  UNL1       -0.1669
     37 F           2.3275    4.1244   31.1914 F       1  UNL1       -0.1669
     38 F           0.2795    4.3943   30.0743 F       1  UNL1       -0.1669
@<TRIPOS>BOND
     1    20    21    1
     2    21    17    1
     3    17    18    2
     4    17    19    2
     5    17     5    1
     6     5     6   ar
     7     6     7   ar
     8     7     8   ar
     9     8     9   ar
    10     9    10   ar
    11     9    11    1
    12    11    12    1
    13    12    13   am
    14    13    14    1
    15    13    15    2
    16    12    16    1
    17    16     1    1
    18     1     2    2
    19     1     3   am
    20     3    22    1
    21    22    23   ar
    22    23    24   ar
    23    24    25   ar
    24    25    28    1
    25    28    29    1
    26    28    31    1
    27    31    32    1
    28    31    33    1
    29    31    34    1
    30    28    35    1
    31    35    36    1
    32    35    37    1
    33    35    38    1
    34    25    26   ar
    35    26    27   ar
    36    10     5   ar
    37    27    22   ar
    38    16     8    1
    39     3     4    1
    40    29    30    1
