@<TRIPOS>MOLECULE
*****
 42 47 0 0 0
SMALL
GASTEIGER

@<TRIPOS>ATOM
      1 N           3.1381    0.3096   31.5001 N.am    1  UNL1       -0.2222
      2 C           2.4665    0.4141   30.1628 C.2     1  UNL1        0.3219
      3 O           2.7640   -0.4293   28.9585 O.2     1  UNL1       -0.2512
      4 N           1.4452    1.5099   30.2414 N.am    1  UNL1       -0.1907
      5 C           1.4856    2.0827   31.6271 C.2     1  UNL1        0.2529
      6 O           0.6301    3.2010   32.1442 O.2     1  UNL1       -0.2724
      7 C           2.5319    1.3409   32.4050 C.3     1  UNL1        0.1391
      8 C           3.6035    0.5150   33.0528 C.3     1  UNL1        0.0449
      9 C           3.9778    0.7613   34.4842 C.3     1  UNL1        0.0746
     10 N           3.2805    1.8334   35.2680 N.3     1  UNL1       -0.2676
     11 C           2.2089    2.6593   34.6203 C.3     1  UNL1        0.0746
     12 C           1.8346    2.4131   33.1888 C.3     1  UNL1        0.0449
     13 C           6.7418   -1.2994   31.9174 C.ar    1  UNL1        0.2293
     14 C           5.6549   -0.3333   31.5498 C.ar    1  UNL1        0.0924
     15 C           4.2250   -0.6565   31.8677 C.ar    1  UNL1        0.1453
     16 N           3.8822   -1.9458   32.5533 N.ar    1  UNL1       -0.2084
     17 C           4.9690   -2.9120   32.9210 C.ar    1  UNL1        0.2027
     18 N           6.3989   -2.5887   32.6030 N.ar    1  UNL1       -0.1892
     19 C           9.1002   -2.0594   31.1363 C.3     1  UNL1        0.2542
     20 O           8.1716   -0.9762   31.5995 O.3     1  UNL1       -0.4560
     21 C           0.5422    1.9548   29.1295 C.ar    1  UNL1        0.0622
     22 C          -0.4586    1.0004   28.5486 C.ar    1  UNL1        0.0154
     23 C          -1.3618    1.4453   27.4367 C.ar    1  UNL1        0.0014
     24 C          -1.2641    2.8447   26.9055 C.ar    1  UNL1        0.0032
     25 C          -0.2632    3.7992   27.4864 C.ar    1  UNL1        0.0014
     26 C           0.6398    3.3542   28.5983 C.ar    1  UNL1        0.0154
     27 C          -2.1672    3.2896   25.7936 C.ar    1  UNL1        0.0407
     28 C          -1.7655    3.5063   24.3646 C.ar    1  UNL1        0.1796
     29 O          -2.9805    3.9466   23.6033 O.2     1  UNL1       -0.4493
     30 C          -4.1332    4.0020   24.5616 C.ar    1  UNL1        0.1594
     31 C          -3.6305    3.5959   25.9152 C.ar    1  UNL1        0.0418
     32 C          -5.5413    4.3945   24.2253 C.2     1  UNL1        0.1076
     33 O          -6.3646    5.1588   25.2192 O.co2   1  UNL1       -0.5415
     34 O          -6.1262    4.0226   22.8951 O.co2   1  UNL1       -0.5415
     35 C           3.6548    2.0796   36.6996 C.3     1  UNL1        0.1183
     36 C           2.6482    1.8515   37.7879 C.ar    1  UNL1        0.0712
     37 N           2.5320    0.5015   38.4312 N.ar    1  UNL1       -0.2471
     38 C           1.5253    0.2734   39.5196 C.ar    1  UNL1        0.0985
     39 C           0.6347    1.3954   39.9647 C.ar    1  UNL1        0.0203
     40 C           0.7509    2.7454   39.3214 C.ar    1  UNL1       -0.0015
     41 C           1.7576    2.9735   38.2330 C.ar    1  UNL1       -0.0069
     42 C           1.8737    4.3236   37.5897 C.3     1  UNL1        0.0323
@<TRIPOS>UNITY_ATOM_ATTR
33 1
charge -1
@<TRIPOS>BOND
     1    19    20    1
     2    20    13    1
     3    13    14   ar
     4    14    15   ar
     5    15     1    1
     6     1     2   am
     7     2     3    2
     8     2     4   am
     9     4    21    1
    10    21    22   ar
    11    22    23   ar
    12    23    24   ar
    13    24    27    1
    14    27    28   ar
    15    28    29   ar
    16    29    30   ar
    17    30    32    1
    18    32    33   ar
    19    32    34   ar
    20    30    31   ar
    21    24    25   ar
    22    25    26   ar
    23     4     5   am
    24     5     6    2
    25     5     7    1
    26     7     8    1
    27     8     9    1
    28     9    10    1
    29    10    35    1
    30    35    36    1
    31    36    37   ar
    32    37    38   ar
    33    38    39   ar
    34    39    40   ar
    35    40    41   ar
    36    41    42    1
    37    10    11    1
    38    11    12    1
    39    15    16   ar
    40    16    17   ar
    41    17    18   ar
    42    18    13   ar
    43     7     1    1
    44    41    36   ar
    45    26    21   ar
    46    12     7    1
    47    31    27   ar
@<TRIPOS>MOLECULE
*****
 42 47 0 0 0
SMALL
GASTEIGER

@<TRIPOS>ATOM
      1 N           2.8485    0.9149   31.4686 N.am    1  UNL1       -0.2222
      2 C           2.2673    0.8960   30.0858 C.2     1  UNL1        0.3219
      3 O           2.6436   -0.0498   28.9841 O.2     1  UNL1       -0.2512
      4 N           1.2437    1.9891   29.9983 N.am    1  UNL1       -0.1907
      5 C           1.1923    2.6834   31.3269 C.2     1  UNL1        0.2529
      6 O           0.3050    3.8388   31.6842 O.2     1  UNL1       -0.2724
      7 C           2.1841    2.0195   32.2357 C.3     1  UNL1        0.1391
      8 C           3.2097    1.2604   33.0242 C.3     1  UNL1        0.0449
      9 C           3.4882    1.6354   34.4495 C.3     1  UNL1        0.0746
     10 N           2.7411    2.7695   35.0864 N.3     1  UNL1       -0.2676
     11 C           1.7154    3.5286   34.2980 C.3     1  UNL1        0.0746
     12 C           1.4369    3.1536   32.8726 C.3     1  UNL1        0.0449
     13 C           6.4153   -0.5619   32.3886 C.ar    1  UNL1        0.2293
     14 C           5.3558    0.3618   31.8649 C.ar    1  UNL1        0.0924
     15 C           3.9080   -0.0088   31.9923 C.ar    1  UNL1        0.1453
     16 N           3.5196   -1.3031   32.6436 N.ar    1  UNL1       -0.2084
     17 C           4.5790   -2.2267   33.1673 C.ar    1  UNL1        0.2027
     18 N           6.0270   -1.8561   33.0398 N.ar    1  UNL1       -0.1892
     19 C           8.7619   -0.2547   33.4605 C.3     1  UNL1        0.2542
     20 O           7.8632   -0.1914   32.2611 O.3     1  UNL1       -0.4560
     21 C           0.4168    2.3282   28.7938 C.ar    1  UNL1        0.0622
     22 C           0.2815    3.7561   28.3547 C.ar    1  UNL1        0.0154
     23 C          -0.5455    4.0952   27.1500 C.ar    1  UNL1        0.0014
     24 C          -1.2371    3.0064   26.3844 C.ar    1  UNL1        0.0032
     25 C          -1.1019    1.5784   26.8235 C.ar    1  UNL1        0.0014
     26 C          -0.2749    1.2394   28.0282 C.ar    1  UNL1        0.0154
     27 C          -2.0641    3.3455   25.1798 C.ar    1  UNL1        0.0407
     28 C          -1.5405    3.6382   23.8049 C.ar    1  UNL1        0.1796
     29 O          -2.7126    3.9251   22.9139 O.2     1  UNL1       -0.4493
     30 C          -3.9605    3.8097   23.7381 C.ar    1  UNL1        0.1594
     31 C          -3.5597    3.4515   25.1385 C.ar    1  UNL1        0.0418
     32 C          -5.3631    4.0162   23.2480 C.2     1  UNL1        0.1076
     33 O          -6.4243    4.4979   24.1924 O.co2   1  UNL1       -0.5415
     34 O          -5.7045    3.7411   21.8136 O.co2   1  UNL1       -0.5415
     35 C           3.0196    3.1444   36.5119 C.3     1  UNL1        0.1183
     36 C           2.2527    2.4907   37.6230 C.ar    1  UNL1        0.0712
     37 N           0.9848    3.1138   38.1270 N.ar    1  UNL1       -0.2471
     38 C           0.2179    2.4600   39.2381 C.ar    1  UNL1        0.0985
     39 C           0.7190    1.1831   39.8451 C.ar    1  UNL1        0.0203
     40 C           1.9869    0.5600   39.3411 C.ar    1  UNL1       -0.0015
     41 C           2.7538    1.2137   38.2300 C.ar    1  UNL1       -0.0069
     42 C           4.0217    0.5906   37.7260 C.3     1  UNL1        0.0323
@<TRIPOS>UNITY_ATOM_ATTR
33 1
charge -1
@<TRIPOS>BOND
     1    19    20    1
     2    20    13    1
     3    13    14   ar
     4    14    15   ar
     5    15     1    1
     6     1     2   am
     7     2     3    2
     8     2     4   am
     9     4    21    1
    10    21    22   ar
    11    22    23   ar
    12    23    24   ar
    13    24    27    1
    14    27    28   ar
    15    28    29   ar
    16    29    30   ar
    17    30    32    1
    18    32    33   ar
    19    32    34   ar
    20    30    31   ar
    21    24    25   ar
    22    25    26   ar
    23     4     5   am
    24     5     6    2
    25     5     7    1
    26     7     8    1
    27     8     9    1
    28     9    10    1
    29    10    35    1
    30    35    36    1
    31    36    37   ar
    32    37    38   ar
    33    38    39   ar
    34    39    40   ar
    35    40    41   ar
    36    41    42    1
    37    10    11    1
    38    11    12    1
    39    15    16   ar
    40    16    17   ar
    41    17    18   ar
    42    18    13   ar
    43     7     1    1
    44    41    36   ar
    45    26    21   ar
    46    12     7    1
    47    31    27   ar
@<TRIPOS>MOLECULE
*****
 42 47 0 0 0
SMALL
GASTEIGER

@<TRIPOS>ATOM
      1 N           3.6077   -1.3545   21.6739 N.am    1  UNL1       -0.2222
      2 C           2.4183   -0.4405   21.6624 C.2     1  UNL1        0.3219
      3 O           1.5164   -0.1820   20.4921 O.2     1  UNL1       -0.2512
      4 N           2.2893    0.1695   23.0267 N.am    1  UNL1       -0.1907
      5 C           3.3989   -0.3675   23.8813 C.2     1  UNL1        0.2529
      6 O           3.6498   -0.0231   25.3195 O.2     1  UNL1       -0.2724
      7 C           4.2138   -1.3094   23.0453 C.3     1  UNL1        0.1391
      8 C           4.9298   -2.2190   22.0915 C.3     1  UNL1        0.0449
      9 C           6.1384   -2.9818   22.5468 C.3     1  UNL1        0.0746
     10 N           6.6310   -2.8349   23.9560 N.3     1  UNL1       -0.2676
     11 C           5.9150   -1.9252   24.9098 C.3     1  UNL1        0.0746
     12 C           4.7064   -1.1625   24.4544 C.3     1  UNL1        0.0449
     13 C           5.5188   -2.3701   18.3473 C.ar    1  UNL1        0.2293
     14 C           5.0227   -1.5542   19.5041 C.ar    1  UNL1        0.0924
     15 C           4.1039   -2.1704   20.5171 C.ar    1  UNL1        0.1453
     16 N           3.6814   -3.6025   20.3733 N.ar    1  UNL1       -0.2084
     17 C           4.1775   -4.4183   19.2166 C.ar    1  UNL1        0.2027
     18 N           5.0963   -3.8021   18.2035 N.ar    1  UNL1       -0.1892
     19 C           6.6693   -0.2720   17.3353 C.3     1  UNL1        0.2542
     20 O           6.4376   -1.7540   17.3343 O.3     1  UNL1       -0.4560
     21 C           1.2358    1.1451   23.4602 C.ar    1  UNL1        0.0622
     22 C           0.5421    0.9637   24.7777 C.ar    1  UNL1        0.0154
     23 C          -0.5115    1.9394   25.2112 C.ar    1  UNL1        0.0014
     24 C          -0.8715    3.0965   24.3272 C.ar    1  UNL1        0.0032
     25 C          -0.1779    3.2779   23.0096 C.ar    1  UNL1        0.0014
     26 C           0.8758    2.3022   22.5762 C.ar    1  UNL1        0.0154
     27 C          -1.9252    4.0721   24.7607 C.ar    1  UNL1        0.0407
     28 C          -1.8121    5.5674   24.7209 C.ar    1  UNL1        0.1796
     29 O          -3.0939    6.1432   25.2457 O.2     1  UNL1       -0.4493
     30 C          -3.9991    5.0039   25.6098 C.ar    1  UNL1        0.1594
     31 C          -3.2768    3.7239   25.3101 C.ar    1  UNL1        0.0418
     32 C          -5.3836    5.1236   26.1746 C.2     1  UNL1        0.1076
     33 O          -5.5777    5.3218   27.6487 O.co2   1  UNL1       -0.5415
     34 O          -6.5739    5.0450   25.2653 O.co2   1  UNL1       -0.5415
     35 C           7.8397   -3.5977   24.4114 C.3     1  UNL1        0.1183
     36 C           7.6933   -5.0017   24.9186 C.ar    1  UNL1        0.0712
     37 N           6.9884   -5.2604   26.2171 N.ar    1  UNL1       -0.2471
     38 C           6.8421   -6.6645   26.7243 C.ar    1  UNL1        0.0985
     39 C           7.4006   -7.8098   25.9330 C.ar    1  UNL1        0.0203
     40 C           8.1055   -7.5511   24.6344 C.ar    1  UNL1       -0.0015
     41 C           8.2519   -6.1471   24.1272 C.ar    1  UNL1       -0.0069
     42 C           8.9567   -5.8884   22.8287 C.3     1  UNL1        0.0323
@<TRIPOS>UNITY_ATOM_ATTR
33 1
charge -1
@<TRIPOS>BOND
     1    19    20    1
     2    20    13    1
     3    13    14   ar
     4    14    15   ar
     5    15     1    1
     6     1     2   am
     7     2     3    2
     8     2     4   am
     9     4    21    1
    10    21    22   ar
    11    22    23   ar
    12    23    24   ar
    13    24    27    1
    14    27    28   ar
    15    28    29   ar
    16    29    30   ar
    17    30    32    1
    18    32    33   ar
    19    32    34   ar
    20    30    31   ar
    21    24    25   ar
    22    25    26   ar
    23     4     5   am
    24     5     6    2
    25     5     7    1
    26     7     8    1
    27     8     9    1
    28     9    10    1
    29    10    35    1
    30    35    36    1
    31    36    37   ar
    32    37    38   ar
    33    38    39   ar
    34    39    40   ar
    35    40    41   ar
    36    41    42    1
    37    10    11    1
    38    11    12    1
    39    15    16   ar
    40    16    17   ar
    41    17    18   ar
    42    18    13   ar
    43     7     1    1
    44    41    36   ar
    45    26    21   ar
    46    12     7    1
    47    31    27   ar
@<TRIPOS>MOLECULE
*****
 42 47 0 0 0
SMALL
GASTEIGER

@<TRIPOS>ATOM
      1 N           3.7420   -0.6010   23.6114 N.am    1  UNL1       -0.2222
      2 C           2.5653    0.3287   23.5766 C.2     1  UNL1        0.3219
      3 O           1.8433    0.7914   22.3460 O.2     1  UNL1       -0.2512
      4 N           2.2375    0.7144   24.9887 N.am    1  UNL1       -0.1907
      5 C           3.2115    0.0231   25.8961 C.2     1  UNL1        0.2529
      6 O           3.2491    0.1266   27.3920 O.2     1  UNL1       -0.2724
      7 C           4.1414   -0.7899   25.0449 C.3     1  UNL1        0.1391
      8 C           4.9906   -1.5500   24.0698 C.3     1  UNL1        0.0449
      9 C           6.1213   -2.4021   24.5652 C.3     1  UNL1        0.0746
     10 N           6.4027   -2.4942   26.0357 N.3     1  UNL1       -0.2676
     11 C           5.5534   -1.7341   27.0108 C.3     1  UNL1        0.0746
     12 C           4.4228   -0.8819   26.5154 C.3     1  UNL1        0.0449
     13 C           4.6702   -3.2423   20.7987 C.ar    1  UNL1        0.2293
     14 C           4.0090   -2.6121   21.9885 C.ar    1  UNL1        0.0924
     15 C           4.4032   -1.2312   22.4216 C.ar    1  UNL1        0.1453
     16 N           5.4587   -0.4805   21.6650 N.ar    1  UNL1       -0.2084
     17 C           6.1199   -1.1106   20.4752 C.ar    1  UNL1        0.2027
     18 N           5.7256   -2.4916   20.0420 N.ar    1  UNL1       -0.1892
     19 C           3.3057   -4.8066   19.2364 C.3     1  UNL1        0.2542
     20 O           4.2761   -4.6232   20.3654 O.3     1  UNL1       -0.4560
     21 C           1.1301    1.6305   25.4179 C.ar    1  UNL1        0.0622
     22 C           0.0541    1.1284   26.3344 C.ar    1  UNL1        0.0154
     23 C          -1.0534    2.0446   26.7637 C.ar    1  UNL1        0.0014
     24 C          -1.0848    3.4628   26.2763 C.ar    1  UNL1        0.0032
     25 C          -0.0088    3.9650   25.3597 C.ar    1  UNL1        0.0014
     26 C           1.0986    3.0488   24.9305 C.ar    1  UNL1        0.0154
     27 C          -2.1923    4.3790   26.7055 C.ar    1  UNL1        0.0407
     28 C          -2.0336    5.6440   27.4960 C.ar    1  UNL1        0.1796
     29 O          -3.3961    6.2378   27.6986 O.2     1  UNL1       -0.4493
     30 C          -4.3967    5.3399   27.0334 C.ar    1  UNL1        0.1594
     31 C          -3.6527    4.1911   26.4197 C.ar    1  UNL1        0.0418
     32 C          -5.8808    5.5533   26.9897 C.2     1  UNL1        0.1076
     33 O          -6.6307    5.8682   28.2500 O.co2   1  UNL1       -0.5415
     34 O          -6.6150    5.4518   25.6856 O.co2   1  UNL1       -0.5415
     35 C           7.5334   -3.3464   26.5310 C.3     1  UNL1        0.1183
     36 C           7.6634   -4.7657   26.0636 C.ar    1  UNL1        0.0712
     37 N           8.4860   -5.0835   24.8502 N.ar    1  UNL1       -0.2471
     38 C           8.6160   -6.5029   24.3829 C.ar    1  UNL1        0.0985
     39 C           7.9233   -7.6046   25.1289 C.ar    1  UNL1        0.0203
     40 C           7.1006   -7.2868   26.3423 C.ar    1  UNL1       -0.0015
     41 C           6.9707   -5.8675   26.8096 C.ar    1  UNL1       -0.0069
     42 C           6.1480   -5.5497   28.0230 C.3     1  UNL1        0.0323
@<TRIPOS>UNITY_ATOM_ATTR
33 1
charge -1
@<TRIPOS>BOND
     1    19    20    1
     2    20    13    1
     3    13    14   ar
     4    14    15   ar
     5    15     1    1
     6     1     2   am
     7     2     3    2
     8     2     4   am
     9     4    21    1
    10    21    22   ar
    11    22    23   ar
    12    23    24   ar
    13    24    27    1
    14    27    28   ar
    15    28    29   ar
    16    29    30   ar
    17    30    32    1
    18    32    33   ar
    19    32    34   ar
    20    30    31   ar
    21    24    25   ar
    22    25    26   ar
    23     4     5   am
    24     5     6    2
    25     5     7    1
    26     7     8    1
    27     8     9    1
    28     9    10    1
    29    10    35    1
    30    35    36    1
    31    36    37   ar
    32    37    38   ar
    33    38    39   ar
    34    39    40   ar
    35    40    41   ar
    36    41    42    1
    37    10    11    1
    38    11    12    1
    39    15    16   ar
    40    16    17   ar
    41    17    18   ar
    42    18    13   ar
    43     7     1    1
    44    41    36   ar
    45    26    21   ar
    46    12     7    1
    47    31    27   ar
@<TRIPOS>MOLECULE
*****
 42 47 0 0 0
SMALL
GASTEIGER

@<TRIPOS>ATOM
      1 N           1.6988    1.6605   24.3846 N.am    1  UNL1       -0.2222
      2 C           1.8210    1.7221   25.8785 C.2     1  UNL1        0.3219
      3 O           1.2473    2.7859   26.7668 O.2     1  UNL1       -0.2512
      4 N           2.6176    0.5332   26.3278 N.am    1  UNL1       -0.1907
      5 C           2.9877   -0.2632   25.1118 C.2     1  UNL1        0.2529
      6 O           3.7855   -1.5334   25.0989 O.2     1  UNL1       -0.2724
      7 C           2.4199    0.4335   23.9108 C.3     1  UNL1        0.1391
      8 C           1.7953    1.2375   22.8094 C.3     1  UNL1        0.0449
      9 C           1.9256    0.7864   21.3848 C.3     1  UNL1        0.0746
     10 N           2.6807   -0.4688   21.0617 N.3     1  UNL1       -0.2676
     11 C           3.3053   -1.2729   22.1631 C.3     1  UNL1        0.0746
     12 C           3.1749   -0.8217   23.5877 C.3     1  UNL1        0.0449
     13 C          -1.1796    3.4302   22.3031 C.ar    1  UNL1        0.2293
     14 C          -0.4623    2.4388   23.1707 C.ar    1  UNL1        0.0924
     15 C           0.9815    2.6518   23.5170 C.ar    1  UNL1        0.1453
     16 N           1.7081    3.8561   22.9957 N.ar    1  UNL1       -0.2084
     17 C           0.9909    4.8475   22.1282 C.ar    1  UNL1        0.2027
     18 N          -0.4530    4.6345   21.7818 N.ar    1  UNL1       -0.1892
     19 C          -3.0645    3.2569   20.5236 C.3     1  UNL1        0.2542
     20 O          -2.6234    3.2173   21.9568 O.3     1  UNL1       -0.4560
     21 C           2.9803    0.1993   27.7444 C.ar    1  UNL1        0.0622
     22 C           1.9104   -0.1923   28.7202 C.ar    1  UNL1        0.0154
     23 C           2.2732   -0.5262   30.1369 C.ar    1  UNL1        0.0014
     24 C           3.7058   -0.4685   30.5778 C.ar    1  UNL1        0.0032
     25 C           4.7757   -0.0769   29.6020 C.ar    1  UNL1        0.0014
     26 C           4.4128    0.2570   28.1854 C.ar    1  UNL1        0.0154
     27 C           4.0685   -0.8024   31.9945 C.ar    1  UNL1        0.0407
     28 C           4.4231   -2.1632   32.5165 C.ar    1  UNL1        0.1796
     29 O           4.7141   -2.0360   33.9825 O.2     1  UNL1       -0.4493
     30 C           4.5394   -0.5965   34.3665 C.ar    1  UNL1        0.1594
     31 C           4.1404    0.1659   33.1378 C.ar    1  UNL1        0.0418
     32 C           4.7301   -0.0205   35.7382 C.2     1  UNL1        0.1076
     33 O           5.8069   -0.5573   36.6340 O.co2   1  UNL1       -0.5415
     34 O           3.8442    1.0923   36.2144 O.co2   1  UNL1       -0.5415
     35 C           2.8111   -0.9199   19.6370 C.3     1  UNL1        0.1183
     36 C           4.1474   -1.3442   19.1040 C.ar    1  UNL1        0.0712
     37 N           5.1880   -0.3132   18.7816 N.ar    1  UNL1       -0.2471
     38 C           6.5244   -0.7376   18.2485 C.ar    1  UNL1        0.0985
     39 C           6.8200   -2.1930   18.0379 C.ar    1  UNL1        0.0203
     40 C           5.7794   -3.2240   18.3603 C.ar    1  UNL1       -0.0015
     41 C           4.4430   -2.7997   18.8934 C.ar    1  UNL1       -0.0069
     42 C           3.4024   -3.8307   19.2158 C.3     1  UNL1        0.0323
@<TRIPOS>UNITY_ATOM_ATTR
33 1
charge -1
@<TRIPOS>BOND
     1    19    20    1
     2    20    13    1
     3    13    14   ar
     4    14    15   ar
     5    15     1    1
     6     1     2   am
     7     2     3    2
     8     2     4   am
     9     4    21    1
    10    21    22   ar
    11    22    23   ar
    12    23    24   ar
    13    24    27    1
    14    27    28   ar
    15    28    29   ar
    16    29    30   ar
    17    30    32    1
    18    32    33   ar
    19    32    34   ar
    20    30    31   ar
    21    24    25   ar
    22    25    26   ar
    23     4     5   am
    24     5     6    2
    25     5     7    1
    26     7     8    1
    27     8     9    1
    28     9    10    1
    29    10    35    1
    30    35    36    1
    31    36    37   ar
    32    37    38   ar
    33    38    39   ar
    34    39    40   ar
    35    40    41   ar
    36    41    42    1
    37    10    11    1
    38    11    12    1
    39    15    16   ar
    40    16    17   ar
    41    17    18   ar
    42    18    13   ar
    43     7     1    1
    44    41    36   ar
    45    26    21   ar
    46    12     7    1
    47    31    27   ar
@<TRIPOS>MOLECULE
*****
 42 47 0 0 0
SMALL
GASTEIGER

@<TRIPOS>ATOM
      1 N           3.4514   -0.0876   30.5940 N.am    1  UNL1       -0.2222
      2 C           2.1963    0.6996   30.3595 C.2     1  UNL1        0.3219
      3 O           1.3279    1.3107   31.4189 O.2     1  UNL1       -0.2512
      4 N           1.9620    0.7683   28.8794 N.am    1  UNL1       -0.1907
      5 C           3.0723    0.0236   28.1993 C.2     1  UNL1        0.2529
      6 O           3.2339   -0.1599   26.7194 O.2     1  UNL1       -0.2724
      7 C           3.9929   -0.5054   29.2590 C.3     1  UNL1        0.1391
      8 C           4.8175   -0.9676   30.4236 C.3     1  UNL1        0.0449
      9 C           6.0611   -1.7730   30.1893 C.3     1  UNL1        0.0746
     10 N           6.4800   -2.1161   28.7905 N.3     1  UNL1       -0.2676
     11 C           5.6554   -1.6539   27.6259 C.3     1  UNL1        0.0746
     12 C           4.4118   -0.8486   27.8601 C.3     1  UNL1        0.0449
     13 C           5.6116    0.2555   33.9055 C.ar    1  UNL1        0.2293
     14 C           5.0045    0.5697   32.5703 C.ar    1  UNL1        0.0924
     15 C           4.0585   -0.4019   31.9292 C.ar    1  UNL1        0.1453
     16 N           3.7196   -1.6878   32.6233 N.ar    1  UNL1       -0.2084
     17 C           4.3266   -2.0020   33.9584 C.ar    1  UNL1        0.2027
     18 N           5.2727   -1.0304   34.5995 N.ar    1  UNL1       -0.1892
     19 C           7.3120    0.8347   35.7823 C.3     1  UNL1        0.2542
     20 O           6.5575    1.2271   34.5467 O.3     1  UNL1       -0.4560
     21 C           0.8183    1.4602   28.1990 C.ar    1  UNL1        0.0622
     22 C           1.0711    2.6749   27.3560 C.ar    1  UNL1        0.0154
     23 C          -0.0727    3.3668   26.6756 C.ar    1  UNL1        0.0014
     24 C          -1.4693    2.8442   26.8382 C.ar    1  UNL1        0.0032
     25 C          -1.7221    1.6294   27.6812 C.ar    1  UNL1        0.0014
     26 C          -0.5782    0.9375   28.3616 C.ar    1  UNL1        0.0154
     27 C          -2.6131    3.5361   26.1577 C.ar    1  UNL1        0.0407
     28 C          -2.8353    3.6238   24.6768 C.ar    1  UNL1        0.1796
     29 O          -4.0950    4.4037   24.4426 O.2     1  UNL1       -0.4493
     30 C          -4.6513    4.7980   25.7787 C.ar    1  UNL1        0.1594
     31 C          -3.7354    4.2618   26.8387 C.ar    1  UNL1        0.0418
     32 C          -5.9036    5.5896   26.0135 C.2     1  UNL1        0.1076
     33 O          -6.6536    6.1691   24.8510 O.co2   1  UNL1       -0.5415
     34 O          -6.4059    5.8016   27.4109 O.co2   1  UNL1       -0.5415
     35 C           7.7236   -2.9215   28.5562 C.3     1  UNL1        0.1183
     36 C           7.6978   -4.0820   27.6062 C.ar    1  UNL1        0.0712
     37 N           8.1124   -3.8910   26.1774 N.ar    1  UNL1       -0.2471
     38 C           8.0865   -5.0516   25.2274 C.ar    1  UNL1        0.0985
     39 C           7.6461   -6.4031   25.7063 C.ar    1  UNL1        0.0203
     40 C           7.2315   -6.5941   27.1351 C.ar    1  UNL1       -0.0015
     41 C           7.2573   -5.4336   28.0851 C.ar    1  UNL1       -0.0069
     42 C           6.8427   -5.6246   29.5139 C.3     1  UNL1        0.0323
@<TRIPOS>UNITY_ATOM_ATTR
33 1
charge -1
@<TRIPOS>BOND
     1    19    20    1
     2    20    13    1
     3    13    14   ar
     4    14    15   ar
     5    15     1    1
     6     1     2   am
     7     2     3    2
     8     2     4   am
     9     4    21    1
    10    21    22   ar
    11    22    23   ar
    12    23    24   ar
    13    24    27    1
    14    27    28   ar
    15    28    29   ar
    16    29    30   ar
    17    30    32    1
    18    32    33   ar
    19    32    34   ar
    20    30    31   ar
    21    24    25   ar
    22    25    26   ar
    23     4     5   am
    24     5     6    2
    25     5     7    1
    26     7     8    1
    27     8     9    1
    28     9    10    1
    29    10    35    1
    30    35    36    1
    31    36    37   ar
    32    37    38   ar
    33    38    39   ar
    34    39    40   ar
    35    40    41   ar
    36    41    42    1
    37    10    11    1
    38    11    12    1
    39    15    16   ar
    40    16    17   ar
    41    17    18   ar
    42    18    13   ar
    43     7     1    1
    44    41    36   ar
    45    26    21   ar
    46    12     7    1
    47    31    27   ar
@<TRIPOS>MOLECULE
*****
 42 47 0 0 0
SMALL
GASTEIGER

@<TRIPOS>ATOM
      1 N           5.7098   -1.9478   26.0015 N.am    1  UNL1       -0.2222
      2 C           5.6978   -1.5877   27.4577 C.2     1  UNL1        0.3219
      3 O           6.7037   -2.0226   28.4818 O.2     1  UNL1       -0.2512
      4 N           4.5031   -0.7162   27.7097 N.am    1  UNL1       -0.1907
      5 C           3.7769   -0.5377   26.4095 C.2     1  UNL1        0.2529
      6 O           2.5248    0.2615   26.2014 O.2     1  UNL1       -0.2724
      7 C           4.5226   -1.2989   25.3537 C.3     1  UNL1        0.1391
      8 C           5.3694   -2.1014   24.4108 C.3     1  UNL1        0.0449
      9 C           4.9939   -2.1969   22.9618 C.3     1  UNL1        0.0746
     10 N           3.7717   -1.4899   22.4556 N.3     1  UNL1       -0.2676
     11 C           2.9249   -0.6875   23.3984 C.3     1  UNL1        0.0746
     12 C           3.3004   -0.5920   24.8475 C.3     1  UNL1        0.0449
     13 C           7.6584   -5.1587   24.7199 C.ar    1  UNL1        0.2293
     14 C           6.6384   -4.3004   25.4074 C.ar    1  UNL1        0.0924
     15 C           6.7299   -2.8061   25.3140 C.ar    1  UNL1        0.1453
     16 N           7.8415   -2.1702   24.5330 N.ar    1  UNL1       -0.2084
     17 C           8.8615   -3.0284   23.8455 C.ar    1  UNL1        0.2027
     18 N           8.7700   -4.5228   23.9389 N.ar    1  UNL1       -0.1892
     19 C           7.2412   -7.3038   26.1248 C.3     1  UNL1        0.2542
     20 O           7.5670   -6.6530   24.8133 O.3     1  UNL1       -0.4560
     21 C           4.1048   -0.1267   29.0302 C.ar    1  UNL1        0.0622
     22 C           2.7948   -0.5046   29.6556 C.ar    1  UNL1        0.0154
     23 C           2.3964    0.0849   30.9761 C.ar    1  UNL1        0.0014
     24 C           3.3080    1.0523   31.6712 C.ar    1  UNL1        0.0032
     25 C           4.6180    1.4303   31.0458 C.ar    1  UNL1        0.0014
     26 C           5.0163    0.8407   29.7253 C.ar    1  UNL1        0.0154
     27 C           2.9096    1.6419   32.9918 C.ar    1  UNL1        0.0407
     28 C           1.8223    2.6509   33.2148 C.ar    1  UNL1        0.1796
     29 O           1.7692    2.9585   34.6819 O.2     1  UNL1       -0.4493
     30 C           2.8238    2.1396   35.3656 C.ar    1  UNL1        0.1594
     31 C           3.5285    1.3259   34.3211 C.ar    1  UNL1        0.0418
     32 C           3.1213    2.1352   36.8358 C.2     1  UNL1        0.1076
     33 O           2.0504    1.7597   37.8166 O.co2   1  UNL1       -0.5415
     34 O           4.4897    2.5064   37.3252 O.co2   1  UNL1       -0.5415
     35 C           3.3962   -1.5855   21.0064 C.3     1  UNL1        0.1183
     36 C           4.4641   -1.7269   19.9627 C.ar    1  UNL1        0.0712
     37 N           5.4520   -0.6192   19.7456 N.ar    1  UNL1       -0.2471
     38 C           6.5200   -0.7607   18.7018 C.ar    1  UNL1        0.0985
     39 C           6.6001   -2.0097   17.8752 C.ar    1  UNL1        0.0203
     40 C           5.6122   -3.1174   18.0923 C.ar    1  UNL1       -0.0015
     41 C           4.5443   -2.9760   19.1360 C.ar    1  UNL1       -0.0069
     42 C           3.5564   -4.0837   19.3531 C.3     1  UNL1        0.0323
@<TRIPOS>UNITY_ATOM_ATTR
33 1
charge -1
@<TRIPOS>BOND
     1    19    20    1
     2    20    13    1
     3    13    14   ar
     4    14    15   ar
     5    15     1    1
     6     1     2   am
     7     2     3    2
     8     2     4   am
     9     4    21    1
    10    21    22   ar
    11    22    23   ar
    12    23    24   ar
    13    24    27    1
    14    27    28   ar
    15    28    29   ar
    16    29    30   ar
    17    30    32    1
    18    32    33   ar
    19    32    34   ar
    20    30    31   ar
    21    24    25   ar
    22    25    26   ar
    23     4     5   am
    24     5     6    2
    25     5     7    1
    26     7     8    1
    27     8     9    1
    28     9    10    1
    29    10    35    1
    30    35    36    1
    31    36    37   ar
    32    37    38   ar
    33    38    39   ar
    34    39    40   ar
    35    40    41   ar
    36    41    42    1
    37    10    11    1
    38    11    12    1
    39    15    16   ar
    40    16    17   ar
    41    17    18   ar
    42    18    13   ar
    43     7     1    1
    44    41    36   ar
    45    26    21   ar
    46    12     7    1
    47    31    27   ar
@<TRIPOS>MOLECULE
*****
 42 47 0 0 0
SMALL
GASTEIGER

@<TRIPOS>ATOM
      1 N          -2.4554    3.8050   25.5874 N.am    1  UNL1       -0.2222
      2 C          -3.8521    4.1385   26.0213 C.2     1  UNL1        0.3219
      3 O          -4.3485    4.1845   27.4360 O.2     1  UNL1       -0.2512
      4 N          -4.6651    4.4177   24.7920 N.am    1  UNL1       -0.1907
      5 C          -3.7710    4.2569   23.5985 C.2     1  UNL1        0.2529
      6 O          -4.1720    4.4421   22.1650 O.2     1  UNL1       -0.2724
      7 C          -2.4053    3.8782   24.0900 C.3     1  UNL1        0.1391
      8 C          -1.0990    3.5064   24.7267 C.3     1  UNL1        0.0449
      9 C           0.1052    3.2465   23.8711 C.3     1  UNL1        0.0746
     10 N           0.0033    3.3584   22.3788 N.3     1  UNL1       -0.2676
     11 C          -1.3030    3.7302   21.7420 C.3     1  UNL1        0.0746
     12 C          -2.5072    3.9901   22.5977 C.3     1  UNL1        0.0449
     13 C          -0.0123    1.7127   27.9119 C.ar    1  UNL1        0.2293
     14 C          -1.1577    2.0586   27.0072 C.ar    1  UNL1        0.0924
     15 C          -1.3100    3.4591   26.4921 C.ar    1  UNL1        0.1453
     16 N          -0.3170    4.5137   26.8816 N.ar    1  UNL1       -0.2084
     17 C           0.8284    4.1678   27.7862 C.ar    1  UNL1        0.2027
     18 N           0.9807    2.7673   28.3014 N.ar    1  UNL1       -0.1892
     19 C          -1.0716   -0.4741   28.8315 C.3     1  UNL1        0.2542
     20 O           0.1401    0.3122   28.4270 O.3     1  UNL1       -0.4560
     21 C          -6.1173    4.7921   24.7617 C.ar    1  UNL1        0.0622
     22 C          -6.6332    5.8695   25.6690 C.ar    1  UNL1        0.0154
     23 C          -8.0854    6.2438   25.6386 C.ar    1  UNL1        0.0014
     24 C          -9.0217    5.5409   24.7011 C.ar    1  UNL1        0.0032
     25 C          -8.5059    4.4634   23.7937 C.ar    1  UNL1        0.0014
     26 C          -7.0536    4.0891   23.8241 C.ar    1  UNL1        0.0154
     27 C         -10.4740    5.9153   24.6707 C.ar    1  UNL1        0.0407
     28 C         -11.0253    7.2900   24.4336 C.ar    1  UNL1        0.1796
     29 O         -12.5218    7.2051   24.4885 O.2     1  UNL1       -0.4493
     30 C         -12.8954    5.7778   24.7596 C.ar    1  UNL1        0.1594
     31 C         -11.6298    4.9807   24.8722 C.ar    1  UNL1        0.0418
     32 C         -14.2899    5.2418   24.8944 C.2     1  UNL1        0.1076
     33 O         -15.0699    4.8643   23.6700 O.co2   1  UNL1       -0.5415
     34 O         -14.9044    5.0833   26.2535 O.co2   1  UNL1       -0.5415
     35 C           1.2077    3.0986   21.5232 C.3     1  UNL1        0.1183
     36 C           1.5250    1.7013   21.0793 C.ar    1  UNL1        0.0712
     37 N           2.1784    0.7426   22.0300 N.ar    1  UNL1       -0.2471
     38 C           2.4957   -0.6547   21.5861 C.ar    1  UNL1        0.0985
     39 C           2.1596   -1.0932   20.1916 C.ar    1  UNL1        0.0203
     40 C           1.5061   -0.1344   19.2409 C.ar    1  UNL1       -0.0015
     41 C           1.1888    1.2628   19.6847 C.ar    1  UNL1       -0.0069
     42 C           0.5354    2.2216   18.7341 C.3     1  UNL1        0.0323
@<TRIPOS>UNITY_ATOM_ATTR
33 1
charge -1
@<TRIPOS>BOND
     1    19    20    1
     2    20    13    1
     3    13    14   ar
     4    14    15   ar
     5    15     1    1
     6     1     2   am
     7     2     3    2
     8     2     4   am
     9     4    21    1
    10    21    22   ar
    11    22    23   ar
    12    23    24   ar
    13    24    27    1
    14    27    28   ar
    15    28    29   ar
    16    29    30   ar
    17    30    32    1
    18    32    33   ar
    19    32    34   ar
    20    30    31   ar
    21    24    25   ar
    22    25    26   ar
    23     4     5   am
    24     5     6    2
    25     5     7    1
    26     7     8    1
    27     8     9    1
    28     9    10    1
    29    10    35    1
    30    35    36    1
    31    36    37   ar
    32    37    38   ar
    33    38    39   ar
    34    39    40   ar
    35    40    41   ar
    36    41    42    1
    37    10    11    1
    38    11    12    1
    39    15    16   ar
    40    16    17   ar
    41    17    18   ar
    42    18    13   ar
    43     7     1    1
    44    41    36   ar
    45    26    21   ar
    46    12     7    1
    47    31    27   ar
@<TRIPOS>MOLECULE
*****
 42 47 0 0 0
SMALL
GASTEIGER

@<TRIPOS>ATOM
      1 N           2.3541    0.5625   22.8210 N.am    1  UNL1       -0.2222
      2 C           1.0316    1.2688   22.7721 C.2     1  UNL1        0.3219
      3 O           0.2316    1.5580   21.5366 O.2     1  UNL1       -0.2512
      4 N           0.6495    1.6351   24.1757 N.am    1  UNL1       -0.1907
      5 C           1.7358    1.1551   25.0920 C.2     1  UNL1        0.2529
      6 O           1.7639    1.3107   26.5836 O.2     1  UNL1       -0.2724
      7 C           2.7893    0.4922   24.2547 C.3     1  UNL1        0.1391
      8 C           3.7533   -0.1367   23.2930 C.3     1  UNL1        0.0449
      9 C           5.0196   -0.7603   23.8004 C.3     1  UNL1        0.0746
     10 N           5.3219   -0.7549   25.2696 N.3     1  UNL1       -0.2676
     11 C           4.3580   -0.1260   26.2314 C.3     1  UNL1        0.0746
     12 C           3.0916    0.4976   25.7239 C.3     1  UNL1        0.0449
     13 C           3.5598   -1.8941   19.9468 C.ar    1  UNL1        0.2293
     14 C           2.8051   -1.3531   21.1248 C.ar    1  UNL1        0.0924
     15 C           3.1087    0.0215   21.6429 C.ar    1  UNL1        0.1453
     16 N           4.1669    0.8549   20.9830 N.ar    1  UNL1       -0.2084
     17 C           4.9216    0.3140   19.8051 C.ar    1  UNL1        0.2027
     18 N           4.6180   -1.0606   19.2869 N.ar    1  UNL1       -0.1892
     19 C           4.3766   -4.1947   19.0581 C.3     1  UNL1        0.2542
     20 O           3.2563   -3.2686   19.4286 O.3     1  UNL1       -0.4560
     21 C          -0.5994    2.3548   24.5901 C.ar    1  UNL1        0.0622
     22 C          -1.1024    2.2343   25.9981 C.ar    1  UNL1        0.0154
     23 C          -2.3514    2.9541   26.4126 C.ar    1  UNL1        0.0014
     24 C          -3.0976    3.7944   25.4190 C.ar    1  UNL1        0.0032
     25 C          -2.5946    3.9150   24.0109 C.ar    1  UNL1        0.0014
     26 C          -1.3455    3.1952   23.5966 C.ar    1  UNL1        0.0154
     27 C          -4.3466    4.5142   25.8335 C.ar    1  UNL1        0.0407
     28 C          -5.5553    4.7476   24.9764 C.ar    1  UNL1        0.1796
     29 O          -6.5620    5.5046   25.7909 O.2     1  UNL1       -0.4493
     30 C          -5.9754    5.7391   27.1515 C.ar    1  UNL1        0.1594
     31 C          -4.6063    5.1270   27.1778 C.ar    1  UNL1        0.0418
     32 C          -6.6411    6.4592   28.2865 C.2     1  UNL1        0.1076
     33 O          -5.8291    7.3216   29.2068 O.co2   1  UNL1       -0.5415
     34 O          -8.1188    6.3170   28.5012 O.co2   1  UNL1       -0.5415
     35 C           6.5883   -1.3786   25.7770 C.3     1  UNL1        0.1183
     36 C           6.5774   -2.7885   26.2887 C.ar    1  UNL1        0.0712
     37 N           6.2133   -3.0651   27.7173 N.ar    1  UNL1       -0.2471
     38 C           6.2023   -4.4752   28.2290 C.ar    1  UNL1        0.0985
     39 C           6.5554   -5.6085   27.3121 C.ar    1  UNL1        0.0203
     40 C           6.9195   -5.3319   25.8835 C.ar    1  UNL1       -0.0015
     41 C           6.9305   -3.9220   25.3718 C.ar    1  UNL1       -0.0069
     42 C           7.2945   -3.6454   23.9432 C.3     1  UNL1        0.0323
@<TRIPOS>UNITY_ATOM_ATTR
33 1
charge -1
@<TRIPOS>BOND
     1    19    20    1
     2    20    13    1
     3    13    14   ar
     4    14    15   ar
     5    15     1    1
     6     1     2   am
     7     2     3    2
     8     2     4   am
     9     4    21    1
    10    21    22   ar
    11    22    23   ar
    12    23    24   ar
    13    24    27    1
    14    27    28   ar
    15    28    29   ar
    16    29    30   ar
    17    30    32    1
    18    32    33   ar
    19    32    34   ar
    20    30    31   ar
    21    24    25   ar
    22    25    26   ar
    23     4     5   am
    24     5     6    2
    25     5     7    1
    26     7     8    1
    27     8     9    1
    28     9    10    1
    29    10    35    1
    30    35    36    1
    31    36    37   ar
    32    37    38   ar
    33    38    39   ar
    34    39    40   ar
    35    40    41   ar
    36    41    42    1
    37    10    11    1
    38    11    12    1
    39    15    16   ar
    40    16    17   ar
    41    17    18   ar
    42    18    13   ar
    43     7     1    1
    44    41    36   ar
    45    26    21   ar
    46    12     7    1
    47    31    27   ar
