@<TRIPOS>MOLECULE
*****
 33 36 0 0 0
SMALL
GASTEIGER

@<TRIPOS>ATOM
      1 C           6.8100   -4.8042   27.3701 C.ar    1  UNL1        0.0405
      2 C           7.2147   -5.9610   28.2350 C.ar    1  UNL1        0.0040
      3 C           7.2963   -5.7922   29.7232 C.ar    1  UNL1        0.0387
      4 C           6.9733   -4.4666   30.3465 C.ar    1  UNL1        0.1655
      5 N           6.9659   -4.0036   31.7733 N.ar    1  UNL1       -0.2061
      6 C           6.5566   -2.5606   31.7902 C.ar    1  UNL1        0.1829
      7 N           6.3111   -2.1319   30.3739 N.ar    1  UNL1       -0.1442
      8 N           6.5687   -3.3098   29.4817 N.ar    1  UNL1       -0.2095
      9 C           6.4870   -3.4786   27.9935 C.ar    1  UNL1        0.1014
     10 C           6.4173   -1.6978   33.0093 C.ar    1  UNL1        0.0296
     11 C           7.5784   -0.8740   33.4818 C.ar    1  UNL1       -0.0191
     12 C           8.8788   -0.9130   32.7351 C.3     1  UNL1        0.0311
     13 C           7.4391   -0.0112   34.7009 C.ar    1  UNL1       -0.0042
     14 C           6.1387    0.0277   35.4475 C.ar    1  UNL1       -0.0006
     15 C           4.9776   -0.7961   34.9750 C.ar    1  UNL1       -0.0042
     16 C           5.1169   -1.6588   33.7560 C.ar    1  UNL1       -0.0191
     17 C           3.9558   -2.4827   33.2835 C.3     1  UNL1        0.0311
     18 C           6.7283   -4.9729   25.8819 C.3     1  UNL1        0.2335
     19 O           7.1848   -3.8682   24.9756 O.3     1  UNL1       -0.4706
     20 C           4.8365   -2.8871   21.2645 C.ar    1  UNL1       -0.0099
     21 C           6.1632   -3.5779   21.1518 C.ar    1  UNL1       -0.0002
     22 C           6.9460   -3.9049   22.3888 C.ar    1  UNL1        0.0366
     23 C           6.4020   -3.5412   23.7385 C.ar    1  UNL1        0.1390
     24 C           5.0753   -2.8505   23.8512 C.ar    1  UNL1        0.0366
     25 C           4.2925   -2.5235   22.6142 C.ar    1  UNL1       -0.0002
     26 C           4.0537   -2.5601   20.0274 C.3     1  UNL1        0.0917
     27 C           0.4233    0.0853   20.2957 C.3     1  UNL1        0.0900
     28 C           1.6334   -0.7965   20.2063 C.1     1  UNL1       -0.0897
     29 C           2.8435   -1.6783   20.1168 C.1     1  UNL1       -0.0872
     30 C           4.4810   -3.1149   18.7009 C.3     1  UNL1        0.0591
     31 C           5.1969   -2.2380   17.7168 C.2     1  UNL1        0.0517
     32 O           6.6813   -2.3641   17.5411 O.co2   1  UNL1       -0.5491
     33 O           4.4285   -1.2350   16.9083 O.co2   1  UNL1       -0.5491
@<TRIPOS>UNITY_ATOM_ATTR
32 1
charge -1
@<TRIPOS>BOND
     1    27    28    1
     2    28    29    3
     3    26    29    1
     4    26    30    1
     5    30    31    1
     6    31    32   ar
     7    31    33   ar
     8    26    20    1
     9    20    21   ar
    10    21    22   ar
    11    22    23   ar
    12    23    19    1
    13    19    18    1
    14    18     1    1
    15     1     2   ar
    16     2     3   ar
    17     3     4   ar
    18     4     5   ar
    19     5     6   ar
    20     6    10    1
    21    10    11   ar
    22    11    12    1
    23    11    13   ar
    24    13    14   ar
    25    14    15   ar
    26    15    16   ar
    27    16    17    1
    28     6     7   ar
    29     7     8   ar
    30     8     9   ar
    31    23    24   ar
    32    24    25   ar
    33    25    20   ar
    34     9     1   ar
    35     8     4   ar
    36    16    10   ar
@<TRIPOS>MOLECULE
*****
 33 36 0 0 0
SMALL
GASTEIGER

@<TRIPOS>ATOM
      1 C           7.5539   -2.5009   19.3433 C.ar    1  UNL1        0.0405
      2 C           8.8399   -1.8853   19.8093 C.ar    1  UNL1        0.0040
      3 C           9.4413   -2.3049   21.1178 C.ar    1  UNL1        0.0387
      4 C           8.7567   -3.3400   21.9603 C.ar    1  UNL1        0.1655
      5 N           9.1085   -3.9485   23.2855 N.ar    1  UNL1       -0.2061
      6 C           8.0398   -4.9401   23.6385 C.ar    1  UNL1        0.1829
      7 N           7.0276   -4.9444   22.5316 N.ar    1  UNL1       -0.1442
      8 N           7.4706   -3.9555   21.4944 N.ar    1  UNL1       -0.2095
      9 C           6.8692   -3.5359   20.1859 C.ar    1  UNL1        0.1014
     10 C           7.9917   -5.7799   24.8805 C.ar    1  UNL1        0.0296
     11 C           7.3093   -5.2605   26.1112 C.ar    1  UNL1       -0.0191
     12 C           6.6750   -3.9012   26.0999 C.3     1  UNL1        0.0311
     13 C           7.2612   -6.1003   27.3531 C.ar    1  UNL1       -0.0042
     14 C           7.8955   -7.4595   27.3643 C.ar    1  UNL1       -0.0006
     15 C           8.5779   -7.9789   26.1337 C.ar    1  UNL1       -0.0042
     16 C           8.6260   -7.1391   24.8918 C.ar    1  UNL1       -0.0191
     17 C           9.3084   -7.6585   23.6611 C.3     1  UNL1        0.0311
     18 C           6.9524   -2.0813   18.0348 C.3     1  UNL1        0.2335
     19 O           5.5520   -2.4913   17.6872 O.3     1  UNL1       -0.4706
     20 C           2.0672   -0.0227   19.1056 C.ar    1  UNL1       -0.0099
     21 C           2.8469    0.4049   17.8977 C.ar    1  UNL1       -0.0002
     22 C           4.0085   -0.4179   17.4249 C.ar    1  UNL1        0.0366
     23 C           4.3904   -1.6684   18.1600 C.ar    1  UNL1        0.1390
     24 C           3.6106   -2.0960   19.3680 C.ar    1  UNL1        0.0366
     25 C           2.4490   -1.2732   19.8408 C.ar    1  UNL1       -0.0002
     26 C           0.9055    0.8002   19.5784 C.3     1  UNL1        0.0917
     27 C          -0.5484    4.2687   17.1075 C.3     1  UNL1        0.0900
     28 C          -0.0638    3.1125   17.9311 C.1     1  UNL1       -0.0897
     29 C           0.4209    1.9564   18.7548 C.1     1  UNL1       -0.0872
     30 C           0.2286    0.4669   20.8748 C.3     1  UNL1        0.0591
     31 C           0.5920    1.2132   22.1242 C.2     1  UNL1        0.0517
     32 O           1.7084    0.7185   22.9954 O.co2   1  UNL1       -0.5491
     33 O          -0.1608    2.4543   22.5024 O.co2   1  UNL1       -0.5491
@<TRIPOS>UNITY_ATOM_ATTR
32 1
charge -1
@<TRIPOS>BOND
     1    27    28    1
     2    28    29    3
     3    26    29    1
     4    26    30    1
     5    30    31    1
     6    31    32   ar
     7    31    33   ar
     8    26    20    1
     9    20    21   ar
    10    21    22   ar
    11    22    23   ar
    12    23    19    1
    13    19    18    1
    14    18     1    1
    15     1     2   ar
    16     2     3   ar
    17     3     4   ar
    18     4     5   ar
    19     5     6   ar
    20     6    10    1
    21    10    11   ar
    22    11    12    1
    23    11    13   ar
    24    13    14   ar
    25    14    15   ar
    26    15    16   ar
    27    16    17    1
    28     6     7   ar
    29     7     8   ar
    30     8     9   ar
    31    23    24   ar
    32    24    25   ar
    33    25    20   ar
    34     9     1   ar
    35     8     4   ar
    36    16    10   ar
@<TRIPOS>MOLECULE
*****
 33 36 0 0 0
SMALL
GASTEIGER

@<TRIPOS>ATOM
      1 C           6.9007   -2.2077   19.0432 C.ar    1  UNL1        0.0405
      2 C           8.2709   -1.6869   19.3613 C.ar    1  UNL1        0.0040
      3 C           8.9832   -2.1549   20.5956 C.ar    1  UNL1        0.0387
      4 C           8.3254   -3.1438   21.5117 C.ar    1  UNL1        0.1655
      5 N           8.7788   -3.7829   22.7909 N.ar    1  UNL1       -0.2061
      6 C           7.6888   -4.6986   23.2633 C.ar    1  UNL1        0.1829
      7 N           6.5617   -4.6256   22.2761 N.ar    1  UNL1       -0.1442
      8 N           6.9552   -3.6646   21.1936 N.ar    1  UNL1       -0.2095
      9 C           6.2428   -3.1966   19.9594 C.ar    1  UNL1        0.1014
     10 C           7.7203   -5.5398   24.5048 C.ar    1  UNL1        0.0296
     11 C           8.3091   -6.9188   24.4618 C.ar    1  UNL1       -0.0191
     12 C           8.8664   -7.4565   23.1771 C.3     1  UNL1        0.0311
     13 C           8.3406   -7.7600   25.7033 C.ar    1  UNL1       -0.0042
     14 C           7.7832   -7.2222   26.9878 C.ar    1  UNL1       -0.0006
     15 C           7.1944   -5.8433   27.0309 C.ar    1  UNL1       -0.0042
     16 C           7.1629   -5.0021   25.7894 C.ar    1  UNL1       -0.0191
     17 C           6.5741   -3.6232   25.8325 C.3     1  UNL1        0.0311
     18 C           6.1882   -1.7396   17.8089 C.3     1  UNL1        0.2335
     19 O           4.7203   -2.0012   17.6456 O.3     1  UNL1       -0.4706
     20 C           1.7249    0.5245   19.8590 C.ar    1  UNL1       -0.0099
     21 C           2.3245    1.0224   18.5774 C.ar    1  UNL1       -0.0002
     22 C           3.3229    0.1806   17.8396 C.ar    1  UNL1        0.0366
     23 C           3.7218   -1.1592   18.3834 C.ar    1  UNL1        0.1390
     24 C           3.1222   -1.6572   19.6650 C.ar    1  UNL1        0.0366
     25 C           2.1238   -0.8153   20.4028 C.ar    1  UNL1       -0.0002
     26 C           0.7264    1.3664   20.5968 C.3     1  UNL1        0.0917
     27 C           0.5086    1.1812   25.0877 C.3     1  UNL1        0.0900
     28 C           0.5812    1.2429   23.5907 C.1     1  UNL1       -0.0897
     29 C           0.6538    1.3046   22.0937 C.1     1  UNL1       -0.0872
     30 C          -0.1993    2.2700   19.8376 C.3     1  UNL1        0.0591
     31 C          -1.1957    3.1141   20.5756 C.2     1  UNL1        0.0517
     32 O          -0.7790    4.4347   21.1521 O.co2   1  UNL1       -0.5491
     33 O          -2.6088    2.6376   20.7372 O.co2   1  UNL1       -0.5491
@<TRIPOS>UNITY_ATOM_ATTR
32 1
charge -1
@<TRIPOS>BOND
     1    27    28    1
     2    28    29    3
     3    26    29    1
     4    26    30    1
     5    30    31    1
     6    31    32   ar
     7    31    33   ar
     8    26    20    1
     9    20    21   ar
    10    21    22   ar
    11    22    23   ar
    12    23    19    1
    13    19    18    1
    14    18     1    1
    15     1     2   ar
    16     2     3   ar
    17     3     4   ar
    18     4     5   ar
    19     5     6   ar
    20     6    10    1
    21    10    11   ar
    22    11    12    1
    23    11    13   ar
    24    13    14   ar
    25    14    15   ar
    26    15    16   ar
    27    16    17    1
    28     6     7   ar
    29     7     8   ar
    30     8     9   ar
    31    23    24   ar
    32    24    25   ar
    33    25    20   ar
    34     9     1   ar
    35     8     4   ar
    36    16    10   ar
@<TRIPOS>MOLECULE
*****
 33 36 0 0 0
SMALL
GASTEIGER

@<TRIPOS>ATOM
      1 C           0.8315    2.0963   26.7271 C.ar    1  UNL1        0.0405
      2 C          -0.2200    1.1250   27.1754 C.ar    1  UNL1        0.0040
      3 C          -0.4869    0.9312   28.6386 C.ar    1  UNL1        0.0387
      4 C           0.2976    1.7086   29.6536 C.ar    1  UNL1        0.1655
      5 N           0.2568    1.7288   31.1529 N.ar    1  UNL1       -0.2061
      6 C           1.2831    2.7126   31.6313 C.ar    1  UNL1        0.1829
      7 N           1.9581    3.3004   30.4276 N.ar    1  UNL1       -0.1442
      8 N           1.3491    2.6799   29.2053 N.ar    1  UNL1       -0.2095
      9 C           1.6160    2.8737   27.7421 C.ar    1  UNL1        0.1014
     10 C           1.5819    3.0495   33.0621 C.ar    1  UNL1        0.0296
     11 C           2.4997    2.1740   33.8629 C.ar    1  UNL1       -0.0191
     12 C           3.1187    0.9616   33.2327 C.3     1  UNL1        0.0311
     13 C           2.7986    2.5109   35.2936 C.ar    1  UNL1       -0.0042
     14 C           2.1796    3.7233   35.9237 C.ar    1  UNL1       -0.0006
     15 C           1.2618    4.5987   35.1230 C.ar    1  UNL1       -0.0042
     16 C           0.9629    4.2619   33.6922 C.ar    1  UNL1       -0.0191
     17 C           0.0451    5.1374   32.8915 C.3     1  UNL1        0.0311
     18 C           1.0985    2.2902   25.2638 C.3     1  UNL1        0.2335
     19 O           0.2994    1.5287   24.2482 O.3     1  UNL1       -0.4706
     20 C           2.3348   -0.2240   20.6378 C.ar    1  UNL1       -0.0099
     21 C           0.9919    0.4296   20.4983 C.ar    1  UNL1       -0.0002
     22 C           0.3135    1.0138   21.7017 C.ar    1  UNL1        0.0366
     23 C           0.9779    0.9445   23.0447 C.ar    1  UNL1        0.1390
     24 C           2.3208    0.2908   23.1843 C.ar    1  UNL1        0.0366
     25 C           2.9992   -0.2934   21.9808 C.ar    1  UNL1       -0.0002
     26 C           3.0133   -0.8082   19.4343 C.3     1  UNL1        0.0917
     27 C           3.9910   -5.1991   19.3127 C.3     1  UNL1        0.0900
     28 C           3.6651   -3.7355   19.3532 C.1     1  UNL1       -0.0897
     29 C           3.3392   -2.2718   19.3938 C.1     1  UNL1       -0.0872
     30 C           3.3658    0.0711   18.2714 C.3     1  UNL1        0.0591
     31 C           4.2581   -0.4471   17.1827 C.2     1  UNL1        0.0517
     32 O           3.6748   -1.2299   16.0439 O.co2   1  UNL1       -0.5491
     33 O           5.7338   -0.1825   17.2329 O.co2   1  UNL1       -0.5491
@<TRIPOS>UNITY_ATOM_ATTR
32 1
charge -1
@<TRIPOS>BOND
     1    27    28    1
     2    28    29    3
     3    26    29    1
     4    26    30    1
     5    30    31    1
     6    31    32   ar
     7    31    33   ar
     8    26    20    1
     9    20    21   ar
    10    21    22   ar
    11    22    23   ar
    12    23    19    1
    13    19    18    1
    14    18     1    1
    15     1     2   ar
    16     2     3   ar
    17     3     4   ar
    18     4     5   ar
    19     5     6   ar
    20     6    10    1
    21    10    11   ar
    22    11    12    1
    23    11    13   ar
    24    13    14   ar
    25    14    15   ar
    26    15    16   ar
    27    16    17    1
    28     6     7   ar
    29     7     8   ar
    30     8     9   ar
    31    23    24   ar
    32    24    25   ar
    33    25    20   ar
    34     9     1   ar
    35     8     4   ar
    36    16    10   ar
@<TRIPOS>MOLECULE
*****
 33 36 0 0 0
SMALL
GASTEIGER

@<TRIPOS>ATOM
      1 C           1.1586    1.8050   26.9193 C.ar    1  UNL1        0.0405
      2 C          -0.0364    1.0059   27.3475 C.ar    1  UNL1        0.0040
      3 C          -0.4092    0.9333   28.7986 C.ar    1  UNL1        0.0387
      4 C           0.4129    1.6598   29.8214 C.ar    1  UNL1        0.1655
      5 N           0.2903    1.7719   31.3123 N.ar    1  UNL1       -0.2061
      6 C           1.4095    2.6403   31.8054 C.ar    1  UNL1        0.1829
      7 N           2.2238    3.0649   30.6194 N.ar    1  UNL1       -0.1442
      8 N           1.6079    2.4589   29.3932 N.ar    1  UNL1       -0.2095
      9 C           1.9808    2.5315   27.9422 C.ar    1  UNL1        0.1014
     10 C           1.6689    3.0178   33.2338 C.ar    1  UNL1        0.0296
     11 C           1.0155    4.2349   33.8184 C.ar    1  UNL1       -0.0191
     12 C           0.1026    5.0744   32.9746 C.3     1  UNL1        0.0311
     13 C           1.2748    4.6124   35.2467 C.ar    1  UNL1       -0.0042
     14 C           2.1877    3.7730   36.0904 C.ar    1  UNL1       -0.0006
     15 C           2.8412    2.5559   35.5058 C.ar    1  UNL1       -0.0042
     16 C           2.5818    2.1783   34.0775 C.ar    1  UNL1       -0.0191
     17 C           3.2353    0.9613   33.4929 C.3     1  UNL1        0.0311
     18 C           1.5315    1.8776   25.4681 C.3     1  UNL1        0.2335
     19 O           0.7034    1.1596   24.4441 O.3     1  UNL1       -0.4706
     20 C           2.6367   -0.4475   20.7119 C.ar    1  UNL1       -0.0099
     21 C           1.3555    0.3272   20.6190 C.ar    1  UNL1       -0.0002
     22 C           0.7111    0.8628   21.8631 C.ar    1  UNL1        0.0366
     23 C           1.3478    0.6239   23.2000 C.ar    1  UNL1        0.1390
     24 C           2.6290   -0.1507   23.2929 C.ar    1  UNL1        0.0366
     25 C           3.2734   -0.6864   22.0488 C.ar    1  UNL1       -0.0002
     26 C           3.2811   -0.9832   19.4677 C.3     1  UNL1        0.0917
     27 C           4.1231   -5.3873   19.0875 C.3     1  UNL1        0.0900
     28 C           3.8424   -3.9192   19.2142 C.1     1  UNL1       -0.0897
     29 C           3.5618   -2.4512   19.3410 C.1     1  UNL1       -0.0872
     30 C           3.6448   -0.0508   18.3504 C.3     1  UNL1        0.0591
     31 C           4.3921   -0.5666   17.1565 C.2     1  UNL1        0.0517
     32 O           3.6488   -1.2330   16.0369 O.co2   1  UNL1       -0.5491
     33 O           5.8827   -0.4160   17.0822 O.co2   1  UNL1       -0.5491
@<TRIPOS>UNITY_ATOM_ATTR
32 1
charge -1
@<TRIPOS>BOND
     1    27    28    1
     2    28    29    3
     3    26    29    1
     4    26    30    1
     5    30    31    1
     6    31    32   ar
     7    31    33   ar
     8    26    20    1
     9    20    21   ar
    10    21    22   ar
    11    22    23   ar
    12    23    19    1
    13    19    18    1
    14    18     1    1
    15     1     2   ar
    16     2     3   ar
    17     3     4   ar
    18     4     5   ar
    19     5     6   ar
    20     6    10    1
    21    10    11   ar
    22    11    12    1
    23    11    13   ar
    24    13    14   ar
    25    14    15   ar
    26    15    16   ar
    27    16    17    1
    28     6     7   ar
    29     7     8   ar
    30     8     9   ar
    31    23    24   ar
    32    24    25   ar
    33    25    20   ar
    34     9     1   ar
    35     8     4   ar
    36    16    10   ar
@<TRIPOS>MOLECULE
*****
 33 36 0 0 0
SMALL
GASTEIGER

@<TRIPOS>ATOM
      1 C           0.7661    1.9640   25.8476 C.ar    1  UNL1        0.0405
      2 C          -0.5172    1.3312   26.2977 C.ar    1  UNL1        0.0040
      3 C          -0.7462    1.0539   27.7540 C.ar    1  UNL1        0.0387
      4 C           0.3080    1.4095   28.7600 C.ar    1  UNL1        0.1655
      5 N           0.3645    1.2568   30.2512 N.ar    1  UNL1       -0.2061
      6 C           1.6827    1.7954   30.7226 C.ar    1  UNL1        0.1829
      7 N           2.4409    2.2808   29.5228 N.ar    1  UNL1       -0.1442
      8 N           1.5913    2.0423   28.3099 N.ar    1  UNL1       -0.2095
      9 C           1.8203    2.3196   26.8537 C.ar    1  UNL1        0.1014
     10 C           2.1592    1.8406   32.1443 C.ar    1  UNL1        0.0296
     11 C           1.6854    2.9303   33.0598 C.ar    1  UNL1       -0.0191
     12 C           0.7352    3.9748   32.5536 C.3     1  UNL1        0.0311
     13 C           2.1618    2.9755   34.4814 C.ar    1  UNL1       -0.0042
     14 C           3.1120    1.9310   34.9875 C.ar    1  UNL1       -0.0006
     15 C           3.5858    0.8413   34.0720 C.ar    1  UNL1       -0.0042
     16 C           3.1094    0.7961   32.6504 C.ar    1  UNL1       -0.0191
     17 C           3.5832   -0.2936   31.7349 C.3     1  UNL1        0.0311
     18 C           0.9952    2.2414   24.3913 C.3     1  UNL1        0.2335
     19 O           0.3051    1.4089   23.3517 O.3     1  UNL1       -0.4706
     20 C           2.7301   -0.9452   20.3806 C.ar    1  UNL1       -0.0099
     21 C           3.2567   -0.7185   21.7667 C.ar    1  UNL1       -0.0002
     22 C           2.4484    0.0662   22.7571 C.ar    1  UNL1        0.0366
     23 C           1.1135    0.6242   22.3613 C.ar    1  UNL1        0.1390
     24 C           0.5869    0.3975   20.9752 C.ar    1  UNL1        0.0366
     25 C           1.3952   -0.3872   19.9849 C.ar    1  UNL1       -0.0002
     26 C           3.5385   -1.7299   19.3902 C.3     1  UNL1        0.0917
     27 C           6.5301    0.3669   16.7628 C.3     1  UNL1        0.0900
     28 C           5.5329   -0.3320   17.6386 C.1     1  UNL1       -0.0897
     29 C           4.5357   -1.0310   18.5144 C.1     1  UNL1       -0.0872
     30 C           3.3496   -3.2136   19.2757 C.3     1  UNL1        0.0591
     31 C           4.3665   -4.1466   19.8634 C.2     1  UNL1        0.0517
     32 O           5.2679   -3.6755   20.9658 O.co2   1  UNL1       -0.5491
     33 O           4.4819   -5.5508   19.3486 O.co2   1  UNL1       -0.5491
@<TRIPOS>UNITY_ATOM_ATTR
32 1
charge -1
@<TRIPOS>BOND
     1    27    28    1
     2    28    29    3
     3    26    29    1
     4    26    30    1
     5    30    31    1
     6    31    32   ar
     7    31    33   ar
     8    26    20    1
     9    20    21   ar
    10    21    22   ar
    11    22    23   ar
    12    23    19    1
    13    19    18    1
    14    18     1    1
    15     1     2   ar
    16     2     3   ar
    17     3     4   ar
    18     4     5   ar
    19     5     6   ar
    20     6    10    1
    21    10    11   ar
    22    11    12    1
    23    11    13   ar
    24    13    14   ar
    25    14    15   ar
    26    15    16   ar
    27    16    17    1
    28     6     7   ar
    29     7     8   ar
    30     8     9   ar
    31    23    24   ar
    32    24    25   ar
    33    25    20   ar
    34     9     1   ar
    35     8     4   ar
    36    16    10   ar
@<TRIPOS>MOLECULE
*****
 33 36 0 0 0
SMALL
GASTEIGER

@<TRIPOS>ATOM
      1 C          -0.1026    3.1721   22.7646 C.ar    1  UNL1        0.0405
      2 C           1.2769    3.7496   22.6486 C.ar    1  UNL1        0.0040
      3 C           2.2554    3.5862   23.7736 C.ar    1  UNL1        0.0387
      4 C           1.8544    2.8453   25.0147 C.ar    1  UNL1        0.1655
      5 N           2.5979    2.5272   26.2782 N.ar    1  UNL1       -0.2061
      6 C           1.6778    1.7532   27.1750 C.ar    1  UNL1        0.1829
      7 N           0.3657    1.5929   26.4658 N.ar    1  UNL1       -0.1442
      8 N           0.4749    2.2678   25.1307 N.ar    1  UNL1       -0.2095
      9 C          -0.5036    2.4313   24.0057 C.ar    1  UNL1        0.1014
     10 C           2.0112    1.2311   28.5411 C.ar    1  UNL1        0.0296
     11 C           1.5656    1.9825   29.7605 C.ar    1  UNL1       -0.0191
     12 C           0.7867    3.2560   29.6137 C.3     1  UNL1        0.0311
     13 C           1.8990    1.4604   31.1266 C.ar    1  UNL1       -0.0042
     14 C           2.6779    0.1870   31.2733 C.ar    1  UNL1       -0.0006
     15 C           3.1235   -0.5644   30.0540 C.ar    1  UNL1       -0.0042
     16 C           2.7901   -0.0424   28.6879 C.ar    1  UNL1       -0.0191
     17 C           3.2357   -0.7938   27.4685 C.3     1  UNL1        0.0311
     18 C          -1.0811    3.3355   21.6395 C.3     1  UNL1        0.2335
     19 O          -1.1769    2.2875   20.5706 O.3     1  UNL1       -0.4706
     20 C           2.4319   -0.1839   19.5131 C.ar    1  UNL1       -0.0099
     21 C           2.2075    1.1400   18.8446 C.ar    1  UNL1       -0.0002
     22 C           1.0046    1.9638   19.1971 C.ar    1  UNL1        0.0366
     23 C           0.0261    1.4637   20.2181 C.ar    1  UNL1        0.1390
     24 C           0.2505    0.1398   20.8865 C.ar    1  UNL1        0.0366
     25 C           1.4534   -0.6840   20.5340 C.ar    1  UNL1       -0.0002
     26 C           3.6349   -1.0078   19.1605 C.3     1  UNL1        0.0917
     27 C           3.5458   -5.4724   19.7163 C.3     1  UNL1        0.0900
     28 C           3.5755   -3.9842   19.5310 C.1     1  UNL1       -0.0897
     29 C           3.6052   -2.4960   19.3458 C.1     1  UNL1       -0.0872
     30 C           4.8675   -0.3434   18.6227 C.3     1  UNL1        0.0591
     31 C           5.2202   -0.4795   17.1712 C.2     1  UNL1        0.0517
     32 O           6.6265   -0.2277   16.7143 O.co2   1  UNL1       -0.5491
     33 O           4.1665   -0.8674   16.1765 O.co2   1  UNL1       -0.5491
@<TRIPOS>UNITY_ATOM_ATTR
32 1
charge -1
@<TRIPOS>BOND
     1    27    28    1
     2    28    29    3
     3    26    29    1
     4    26    30    1
     5    30    31    1
     6    31    32   ar
     7    31    33   ar
     8    26    20    1
     9    20    21   ar
    10    21    22   ar
    11    22    23   ar
    12    23    19    1
    13    19    18    1
    14    18     1    1
    15     1     2   ar
    16     2     3   ar
    17     3     4   ar
    18     4     5   ar
    19     5     6   ar
    20     6    10    1
    21    10    11   ar
    22    11    12    1
    23    11    13   ar
    24    13    14   ar
    25    14    15   ar
    26    15    16   ar
    27    16    17    1
    28     6     7   ar
    29     7     8   ar
    30     8     9   ar
    31    23    24   ar
    32    24    25   ar
    33    25    20   ar
    34     9     1   ar
    35     8     4   ar
    36    16    10   ar
@<TRIPOS>MOLECULE
*****
 33 36 0 0 0
SMALL
GASTEIGER

@<TRIPOS>ATOM
      1 C         -11.0941   -3.0878   17.8222 C.ar    1  UNL1        0.0405
      2 C         -11.9506   -3.4016   16.6315 C.ar    1  UNL1        0.0040
      3 C         -12.9867   -2.4187   16.1729 C.ar    1  UNL1        0.0387
      4 C         -13.1663   -1.1219   16.9051 C.ar    1  UNL1        0.1655
      5 N         -14.0986    0.0329   16.6873 N.ar    1  UNL1       -0.2061
      6 C         -13.8182    1.0605   17.7435 C.ar    1  UNL1        0.1829
      7 N         -12.7127    0.5407   18.6140 N.ar    1  UNL1       -0.1442
      8 N         -12.3098   -0.8081   18.0959 N.ar    1  UNL1       -0.2095
      9 C         -11.2737   -1.7910   18.5544 C.ar    1  UNL1        0.1014
     10 C         -14.5201    2.3767   17.9015 C.ar    1  UNL1        0.0296
     11 C         -14.0791    3.5632   17.0966 C.ar    1  UNL1       -0.0191
     12 C         -12.9363    3.4333   16.1336 C.3     1  UNL1        0.0311
     13 C         -14.7810    4.8794   17.2545 C.ar    1  UNL1       -0.0042
     14 C         -15.9237    5.0091   18.2174 C.ar    1  UNL1       -0.0006
     15 C         -16.3647    3.8227   19.0224 C.ar    1  UNL1       -0.0042
     16 C         -15.6628    2.5065   18.8644 C.ar    1  UNL1       -0.0191
     17 C         -16.1038    1.3200   19.6694 C.3     1  UNL1        0.0311
     18 C         -10.0580   -4.0708   18.2808 C.3     1  UNL1        0.2335
     19 O         -10.4340   -5.1677   19.2323 O.3     1  UNL1       -0.4706
     20 C         -14.3484   -7.3317   18.7378 C.ar    1  UNL1       -0.0099
     21 C         -14.2743   -6.1015   19.5929 C.ar    1  UNL1       -0.0002
     22 C         -12.9695   -5.3802   19.7577 C.ar    1  UNL1        0.0366
     23 C         -11.7388   -5.8890   19.0675 C.ar    1  UNL1        0.1390
     24 C         -11.8129   -7.1192   18.2124 C.ar    1  UNL1        0.0366
     25 C         -13.1177   -7.8405   18.0476 C.ar    1  UNL1       -0.0002
     26 C         -15.6532   -8.0530   18.5730 C.3     1  UNL1        0.0917
     27 C         -19.5107   -5.9992   19.6463 C.3     1  UNL1        0.0900
     28 C         -18.2249   -6.6838   19.2886 C.1     1  UNL1       -0.0897
     29 C         -16.9390   -7.3684   18.9308 C.1     1  UNL1       -0.0872
     30 C         -15.6722   -9.4589   18.0505 C.3     1  UNL1        0.0591
     31 C         -16.8181  -10.3675   18.3839 C.2     1  UNL1        0.0517
     32 O         -18.1147  -10.2436   17.6399 O.co2   1  UNL1       -0.5491
     33 O         -16.6676  -11.4001   19.4616 O.co2   1  UNL1       -0.5491
@<TRIPOS>UNITY_ATOM_ATTR
32 1
charge -1
@<TRIPOS>BOND
     1    27    28    1
     2    28    29    3
     3    26    29    1
     4    26    30    1
     5    30    31    1
     6    31    32   ar
     7    31    33   ar
     8    26    20    1
     9    20    21   ar
    10    21    22   ar
    11    22    23   ar
    12    23    19    1
    13    19    18    1
    14    18     1    1
    15     1     2   ar
    16     2     3   ar
    17     3     4   ar
    18     4     5   ar
    19     5     6   ar
    20     6    10    1
    21    10    11   ar
    22    11    12    1
    23    11    13   ar
    24    13    14   ar
    25    14    15   ar
    26    15    16   ar
    27    16    17    1
    28     6     7   ar
    29     7     8   ar
    30     8     9   ar
    31    23    24   ar
    32    24    25   ar
    33    25    20   ar
    34     9     1   ar
    35     8     4   ar
    36    16    10   ar
@<TRIPOS>MOLECULE
*****
 33 36 0 0 0
SMALL
GASTEIGER

@<TRIPOS>ATOM
      1 C          -1.0643    3.5747   22.4378 C.ar    1  UNL1        0.0405
      2 C          -2.4776    3.7440   22.9107 C.ar    1  UNL1        0.0040
      3 C          -2.7913    3.6767   24.3760 C.ar    1  UNL1        0.0387
      4 C          -1.6916    3.4401   25.3683 C.ar    1  UNL1        0.1655
      5 N          -1.6969    3.3256   26.8640 N.ar    1  UNL1       -0.2061
      6 C          -0.2867    3.0855   27.3154 C.ar    1  UNL1        0.1829
      7 N           0.5900    3.0516   26.0988 N.ar    1  UNL1       -0.1442
      8 N          -0.2783    3.2708   24.8954 N.ar    1  UNL1       -0.2095
      9 C           0.0354    3.3381   23.4302 C.ar    1  UNL1        0.1014
     10 C           0.1671    2.9100   28.7344 C.ar    1  UNL1        0.0296
     11 C           0.5362    4.1085   29.5574 C.ar    1  UNL1       -0.0191
     12 C           0.4515    5.4825   28.9614 C.3     1  UNL1        0.0311
     13 C           0.9900    3.9332   30.9762 C.ar    1  UNL1       -0.0042
     14 C           1.0747    2.5592   31.5721 C.ar    1  UNL1       -0.0006
     15 C           0.7056    1.3607   30.7491 C.ar    1  UNL1       -0.0042
     16 C           0.2518    1.5361   29.3303 C.ar    1  UNL1       -0.0191
     17 C          -0.1173    0.3376   28.5073 C.3     1  UNL1        0.0311
     18 C          -0.7505    3.6419   20.9725 C.3     1  UNL1        0.2335
     19 O          -0.9858    2.4452   20.0994 O.3     1  UNL1       -0.4706
     20 C           2.4541   -0.2271   18.9697 C.ar    1  UNL1       -0.0099
     21 C           2.2776    1.0972   18.2876 C.ar    1  UNL1       -0.0002
     22 C           1.1310    1.9879   18.6641 C.ar    1  UNL1        0.0366
     23 C           0.1609    1.5544   19.7228 C.ar    1  UNL1        0.1390
     24 C           0.3373    0.2302   20.4049 C.ar    1  UNL1        0.0366
     25 C           1.4839   -0.6606   20.0283 C.ar    1  UNL1       -0.0002
     26 C           3.6008   -1.1178   18.5930 C.3     1  UNL1        0.0917
     27 C           3.5406   -5.4689   19.7394 C.3     1  UNL1        0.0900
     28 C           3.5606   -4.0186   19.3573 C.1     1  UNL1       -0.0897
     29 C           3.5807   -2.5682   18.9752 C.1     1  UNL1       -0.0872
     30 C           4.7674   -0.5582   17.8343 C.3     1  UNL1        0.0591
     31 C           6.1619   -0.9932   18.1751 C.2     1  UNL1        0.0517
     32 O           6.9504   -0.2430   19.2072 O.co2   1  UNL1       -0.5491
     33 O           6.7679   -2.1784   17.4836 O.co2   1  UNL1       -0.5491
@<TRIPOS>UNITY_ATOM_ATTR
32 1
charge -1
@<TRIPOS>BOND
     1    27    28    1
     2    28    29    3
     3    26    29    1
     4    26    30    1
     5    30    31    1
     6    31    32   ar
     7    31    33   ar
     8    26    20    1
     9    20    21   ar
    10    21    22   ar
    11    22    23   ar
    12    23    19    1
    13    19    18    1
    14    18     1    1
    15     1     2   ar
    16     2     3   ar
    17     3     4   ar
    18     4     5   ar
    19     5     6   ar
    20     6    10    1
    21    10    11   ar
    22    11    12    1
    23    11    13   ar
    24    13    14   ar
    25    14    15   ar
    26    15    16   ar
    27    16    17    1
    28     6     7   ar
    29     7     8   ar
    30     8     9   ar
    31    23    24   ar
    32    24    25   ar
    33    25    20   ar
    34     9     1   ar
    35     8     4   ar
    36    16    10   ar
