@<TRIPOS>MOLECULE
*****
 14 15 0 0 0
SMALL
GASTEIGER

@<TRIPOS>ATOM
      1 C          -6.7672  -15.5618   27.3596 C.3     1  UNL1        0.0381
      2 C          -7.4326  -15.6874   26.0212 C.ar    1  UNL1        0.0070
      3 C          -8.7621  -16.3287   25.7542 C.ar    1  UNL1       -0.0000
      4 C          -9.0365  -16.2315   24.2827 C.ar    1  UNL1        0.0019
      5 C          -7.8767  -15.5301   23.6403 C.ar    1  UNL1        0.0052
      6 C          -7.7332  -15.2195   22.1798 C.3     1  UNL1        0.0379
      7 S          -6.8854  -15.1938   24.7146 S.2     1  UNL1       -0.0959
      8 C         -10.2566  -16.7455   23.5775 C.3     1  UNL1        0.1175
      9 C         -10.5970  -18.2052   23.6350 C.2     1  UNL1        0.0182
     10 C         -11.8171  -18.7191   22.9299 C.2     1  UNL1        0.0978
     11 N         -12.6968  -17.7733   22.1672 N.2     1  UNL1       -0.2268
     12 C         -12.3564  -16.3136   22.1097 C.2     1  UNL1        0.1606
     13 N         -11.1363  -15.7997   22.8149 N.pl3   1  UNL1       -0.3104
     14 H         -10.9129  -14.8416   22.7771 H       1  UNL1        0.1488
@<TRIPOS>BOND
     1     1     2    1
     2     2     3   ar
     3     3     4   ar
     4     4     8    1
     5     8     9    1
     6     9    10    2
     7    10    11    1
     8    11    12    2
     9    12    13    1
    10     4     5   ar
    11     5     6    1
    12     5     7   ar
    13     7     2   ar
    14    13     8    1
    15    13    14    1
@<TRIPOS>MOLECULE
*****
 14 15 0 0 0
SMALL
GASTEIGER

@<TRIPOS>ATOM
      1 C         -13.8781  -18.1079   24.2495 C.3     1  UNL1        0.0381
      2 C         -12.9403  -17.8523   23.1070 C.ar    1  UNL1        0.0070
      3 C         -11.6829  -18.6147   22.8110 C.ar    1  UNL1       -0.0000
      4 C         -11.0608  -18.0230   21.5810 C.ar    1  UNL1        0.0019
      5 C         -11.9337  -16.8950   21.1168 C.ar    1  UNL1        0.0052
      6 C         -11.6882  -16.0252   19.9197 C.3     1  UNL1        0.0379
      7 S         -13.0953  -16.7894   22.0599 S.2     1  UNL1       -0.0959
      8 C          -9.7890  -18.4793   20.9295 C.3     1  UNL1        0.1175
      9 C          -9.8413  -19.2964   19.6727 C.2     1  UNL1        0.0182
     10 C          -8.5695  -19.7527   19.0213 C.2     1  UNL1        0.0978
     11 N          -7.2454  -19.3919   19.6267 N.2     1  UNL1       -0.2268
     12 C          -7.1931  -18.5749   20.8835 C.2     1  UNL1        0.1606
     13 N          -8.4648  -18.1186   21.5349 N.pl3   1  UNL1       -0.3104
     14 H          -8.4305  -17.5823   22.3598 H       1  UNL1        0.1488
@<TRIPOS>BOND
     1     1     2    1
     2     2     3   ar
     3     3     4   ar
     4     4     8    1
     5     8     9    1
     6     9    10    2
     7    10    11    1
     8    11    12    2
     9    12    13    1
    10     4     5   ar
    11     5     6    1
    12     5     7   ar
    13     7     2   ar
    14    13     8    1
    15    13    14    1
@<TRIPOS>MOLECULE
*****
 14 15 0 0 0
SMALL
GASTEIGER

@<TRIPOS>ATOM
      1 C         -14.0871  -18.1590   24.2850 C.3     1  UNL1        0.0381
      2 C         -12.8857  -17.9961   23.4018 C.ar    1  UNL1        0.0070
      3 C         -11.4532  -18.0454   23.8439 C.ar    1  UNL1       -0.0000
      4 C         -10.5879  -17.8352   22.6368 C.ar    1  UNL1        0.0019
      5 C         -11.4857  -17.6559   21.4486 C.ar    1  UNL1        0.0052
      6 C         -11.0414  -17.4189   20.0356 C.3     1  UNL1        0.0379
      7 S         -12.9058  -17.7554   21.9213 S.2     1  UNL1       -0.0959
      8 C          -9.0882  -17.8088   22.6207 C.3     1  UNL1        0.1175
      9 C          -8.3248  -18.9406   21.9995 C.2     1  UNL1        0.0182
     10 C          -6.8251  -18.9142   21.9834 C.2     1  UNL1        0.0978
     11 N          -6.0889  -17.7559   22.5887 N.2     1  UNL1       -0.2268
     12 C          -6.8523  -16.6240   23.2099 C.2     1  UNL1        0.1606
     13 N          -8.3520  -16.6505   23.2259 N.pl3   1  UNL1       -0.3104
     14 H          -8.8531  -15.9076   23.6337 H       1  UNL1        0.1488
@<TRIPOS>BOND
     1     1     2    1
     2     2     3   ar
     3     3     4   ar
     4     4     8    1
     5     8     9    1
     6     9    10    2
     7    10    11    1
     8    11    12    2
     9    12    13    1
    10     4     5   ar
    11     5     6    1
    12     5     7   ar
    13     7     2   ar
    14    13     8    1
    15    13    14    1
@<TRIPOS>MOLECULE
*****
 14 15 0 0 0
SMALL
GASTEIGER

@<TRIPOS>ATOM
      1 C         -12.8589  -17.5675   21.6045 C.3     1  UNL1        0.0381
      2 C         -11.4445  -17.6822   22.0906 C.ar    1  UNL1        0.0070
      3 C         -10.6850  -16.6341   22.8485 C.ar    1  UNL1       -0.0000
      4 C          -9.3123  -17.1693   23.1304 C.ar    1  UNL1        0.0019
      5 C          -9.2235  -18.5482   22.5467 C.ar    1  UNL1        0.0052
      6 C          -8.0271  -19.4515   22.5968 C.3     1  UNL1        0.0379
      7 S         -10.5413  -18.8652   21.9040 S.2     1  UNL1       -0.0959
      8 C          -8.2202  -16.4515   23.8668 C.3     1  UNL1        0.1175
      9 C          -8.3763  -16.1442   25.3266 C.2     1  UNL1        0.0182
     10 C          -7.2842  -15.4265   26.0629 C.2     1  UNL1        0.0978
     11 N          -6.0360  -15.0161   25.3394 N.2     1  UNL1       -0.2268
     12 C          -5.8799  -15.3234   23.8795 C.2     1  UNL1        0.1606
     13 N          -6.9720  -16.0411   23.1432 N.pl3   1  UNL1       -0.3104
     14 H          -6.8695  -16.2428   22.1851 H       1  UNL1        0.1488
@<TRIPOS>BOND
     1     1     2    1
     2     2     3   ar
     3     3     4   ar
     4     4     8    1
     5     8     9    1
     6     9    10    2
     7    10    11    1
     8    11    12    2
     9    12    13    1
    10     4     5   ar
    11     5     6    1
    12     5     7   ar
    13     7     2   ar
    14    13     8    1
    15    13    14    1
@<TRIPOS>MOLECULE
*****
 14 15 0 0 0
SMALL
GASTEIGER

@<TRIPOS>ATOM
      1 C          -4.7159  -19.2319   22.3573 C.3     1  UNL1        0.0381
      2 C          -6.0717  -19.1577   21.7199 C.ar    1  UNL1        0.0070
      3 C          -7.2758  -18.4657   22.2867 C.ar    1  UNL1       -0.0000
      4 C          -8.4097  -18.6428   21.3209 C.ar    1  UNL1        0.0019
      5 C          -7.9065  -19.4442   20.1571 C.ar    1  UNL1        0.0052
      6 C          -8.7075  -19.8552   18.9574 C.3     1  UNL1        0.0379
      7 S          -6.4615  -19.7624   20.4037 S.2     1  UNL1       -0.0959
      8 C          -9.8024  -18.1116   21.4893 C.3     1  UNL1        0.1175
      9 C         -10.7379  -18.7569   22.4683 C.2     1  UNL1        0.0182
     10 C         -12.1306  -18.2258   22.6367 C.2     1  UNL1        0.0978
     11 N         -12.5877  -17.0494   21.8261 N.2     1  UNL1       -0.2268
     12 C         -11.6522  -16.4041   20.8472 C.2     1  UNL1        0.1606
     13 N         -10.2596  -16.9352   20.6788 N.pl3   1  UNL1       -0.3104
     14 H          -9.6455  -16.5117   20.0362 H       1  UNL1        0.1488
@<TRIPOS>BOND
     1     1     2    1
     2     2     3   ar
     3     3     4   ar
     4     4     8    1
     5     8     9    1
     6     9    10    2
     7    10    11    1
     8    11    12    2
     9    12    13    1
    10     4     5   ar
    11     5     6    1
    12     5     7   ar
    13     7     2   ar
    14    13     8    1
    15    13    14    1
@<TRIPOS>MOLECULE
*****
 14 15 0 0 0
SMALL
GASTEIGER

@<TRIPOS>ATOM
      1 C          -2.0926  -18.1649   22.6816 C.3     1  UNL1        0.0381
      2 C          -3.4285  -18.6638   22.2163 C.ar    1  UNL1        0.0070
      3 C          -4.7653  -18.1367   22.6466 C.ar    1  UNL1       -0.0000
      4 C          -5.8251  -18.9245   21.9353 C.ar    1  UNL1        0.0019
      5 C          -5.1434  -19.9386   21.0653 C.ar    1  UNL1        0.0052
      6 C          -5.8234  -20.9383   20.1774 C.3     1  UNL1        0.0379
      7 S          -3.6622  -19.7775   21.2389 S.2     1  UNL1       -0.0959
      8 C          -7.3066  -18.7321   22.0702 C.3     1  UNL1        0.1175
      9 C          -8.1434  -19.7889   22.7282 C.2     1  UNL1        0.0182
     10 C          -9.6248  -19.5964   22.8631 C.2     1  UNL1        0.0978
     11 N         -10.2695  -18.3471   22.3401 N.2     1  UNL1       -0.2268
     12 C          -9.4328  -17.2903   21.6822 C.2     1  UNL1        0.1606
     13 N          -7.9514  -17.4827   21.5472 N.pl3   1  UNL1       -0.3104
     14 H          -7.4022  -16.7891   21.1154 H       1  UNL1        0.1488
@<TRIPOS>BOND
     1     1     2    1
     2     2     3   ar
     3     3     4   ar
     4     4     8    1
     5     8     9    1
     6     9    10    2
     7    10    11    1
     8    11    12    2
     9    12    13    1
    10     4     5   ar
    11     5     6    1
    12     5     7   ar
    13     7     2   ar
    14    13     8    1
    15    13    14    1
@<TRIPOS>MOLECULE
*****
 14 15 0 0 0
SMALL
GASTEIGER

@<TRIPOS>ATOM
      1 C          -5.6844  -15.4987   24.3475 C.3     1  UNL1        0.0381
      2 C          -6.6686  -16.2463   23.4976 C.ar    1  UNL1        0.0070
      3 C          -8.0385  -15.7728   23.1113 C.ar    1  UNL1       -0.0000
      4 C          -8.6723  -16.8325   22.2597 C.ar    1  UNL1        0.0019
      5 C          -7.6942  -17.9611   22.1197 C.ar    1  UNL1        0.0052
      6 C          -7.9155  -19.2292   21.3498 C.3     1  UNL1        0.0379
      7 S          -6.4559  -17.5988   22.8847 S.2     1  UNL1       -0.0959
      8 C         -10.0436  -16.7740   21.6545 C.3     1  UNL1        0.1175
      9 C         -11.1759  -17.5264   22.2882 C.2     1  UNL1        0.0182
     10 C         -12.5471  -17.4678   21.6830 C.2     1  UNL1        0.0978
     11 N         -12.7860  -16.6568   20.4439 N.2     1  UNL1       -0.2268
     12 C         -11.6537  -15.9044   19.8102 C.2     1  UNL1        0.1606
     13 N         -10.2825  -15.9630   20.4154 N.pl3   1  UNL1       -0.3104
     14 H          -9.5393  -15.4692   19.9994 H       1  UNL1        0.1488
@<TRIPOS>BOND
     1     1     2    1
     2     2     3   ar
     3     3     4   ar
     4     4     8    1
     5     8     9    1
     6     9    10    2
     7    10    11    1
     8    11    12    2
     9    12    13    1
    10     4     5   ar
    11     5     6    1
    12     5     7   ar
    13     7     2   ar
    14    13     8    1
    15    13    14    1
@<TRIPOS>MOLECULE
*****
 14 15 0 0 0
SMALL
GASTEIGER

@<TRIPOS>ATOM
      1 C          -5.7751  -15.0181   25.7446 C.3     1  UNL1        0.0381
      2 C          -6.7262  -15.7513   24.8459 C.ar    1  UNL1        0.0070
      3 C          -8.2085  -15.8719   25.0414 C.ar    1  UNL1       -0.0000
      4 C          -8.7604  -16.6879   23.9102 C.ar    1  UNL1        0.0019
      5 C          -7.6193  -17.0715   23.0155 C.ar    1  UNL1        0.0052
      6 C          -7.7180  -17.8902   21.7625 C.3     1  UNL1        0.0379
      7 S          -6.3621  -16.4927   23.5937 S.2     1  UNL1       -0.0959
      8 C         -10.2008  -17.0556   23.7091 C.3     1  UNL1        0.1175
      9 C         -11.0524  -16.2618   22.7633 C.2     1  UNL1        0.0182
     10 C         -12.4927  -16.6295   22.5622 C.2     1  UNL1        0.0978
     11 N         -13.0812  -17.7910   23.3069 N.2     1  UNL1       -0.2268
     12 C         -12.2295  -18.5848   24.2526 C.2     1  UNL1        0.1606
     13 N         -10.7893  -18.2171   24.4537 N.pl3   1  UNL1       -0.3104
     14 H         -10.2303  -18.7381   25.0745 H       1  UNL1        0.1488
@<TRIPOS>BOND
     1     1     2    1
     2     2     3   ar
     3     3     4   ar
     4     4     8    1
     5     8     9    1
     6     9    10    2
     7    10    11    1
     8    11    12    2
     9    12    13    1
    10     4     5   ar
    11     5     6    1
    12     5     7   ar
    13     7     2   ar
    14    13     8    1
    15    13    14    1
@<TRIPOS>MOLECULE
*****
 14 15 0 0 0
SMALL
GASTEIGER

@<TRIPOS>ATOM
      1 C          -9.4503  -20.0929   19.0147 C.3     1  UNL1        0.0381
      2 C          -9.6328  -19.0080   20.0342 C.ar    1  UNL1        0.0070
      3 C          -8.6355  -18.6030   21.0790 C.ar    1  UNL1       -0.0000
      4 C          -9.2310  -17.4822   21.8785 C.ar    1  UNL1        0.0019
      5 C         -10.5962  -17.1944   21.3279 C.ar    1  UNL1        0.0052
      6 C         -11.5464  -16.1475   21.8290 C.3     1  UNL1        0.0379
      7 S         -10.8446  -18.1373   20.1881 S.2     1  UNL1       -0.0959
      8 C          -8.5761  -16.7735   23.0270 C.3     1  UNL1        0.1175
      9 C          -9.1859  -16.8407   24.3958 C.2     1  UNL1        0.0182
     10 C          -8.5310  -16.1321   25.5442 C.2     1  UNL1        0.0978
     11 N          -7.2663  -15.3563   25.3238 N.2     1  UNL1       -0.2268
     12 C          -6.6565  -15.2890   23.9551 C.2     1  UNL1        0.1606
     13 N          -7.3114  -15.9977   22.8066 N.pl3   1  UNL1       -0.3104
     14 H          -6.9111  -15.9535   21.9083 H       1  UNL1        0.1488
@<TRIPOS>BOND
     1     1     2    1
     2     2     3   ar
     3     3     4   ar
     4     4     8    1
     5     8     9    1
     6     9    10    2
     7    10    11    1
     8    11    12    2
     9    12    13    1
    10     4     5   ar
    11     5     6    1
    12     5     7   ar
    13     7     2   ar
    14    13     8    1
    15    13    14    1
