@<TRIPOS>MOLECULE
*****
 28 33 0 0 0
SMALL
GASTEIGER

@<TRIPOS>ATOM
      1 C          -5.5745  -18.3627   21.2182 C.3     1  UNL1        0.0578
      2 C          -6.8049  -19.0836   20.7533 C.3     1  UNL1        0.0163
      3 C          -7.9038  -18.8060   21.7357 C.3     1  UNL1        0.0058
      4 C          -7.3525  -17.9134   22.8078 C.3     1  UNL1        0.0240
      5 C          -6.5719  -17.0355   23.7404 C.3     1  UNL1        0.0301
      6 C          -7.0348  -16.3621   24.9983 C.ar    1  UNL1       -0.0255
      7 C          -5.9307  -15.5707   25.6344 C.ar    1  UNL1       -0.0046
      8 C          -6.1846  -14.8175   26.9065 C.ar    1  UNL1       -0.0003
      9 C          -7.5426  -14.8556   27.5424 C.ar    1  UNL1       -0.0003
     10 C          -8.6467  -15.6469   26.9062 C.ar    1  UNL1       -0.0042
     11 C          -8.3928  -16.4002   25.6342 C.ar    1  UNL1       -0.0217
     12 C          -9.6232  -17.1212   25.1692 C.3     1  UNL1        0.0520
     13 C          -9.7997  -17.9821   23.9536 C.ar    1  UNL1       -0.0218
     14 C         -11.1982  -18.5159   23.8584 C.ar    1  UNL1       -0.0042
     15 C         -11.5862  -19.4024   22.7122 C.ar    1  UNL1       -0.0003
     16 C         -10.5757  -19.7549   21.6613 C.ar    1  UNL1       -0.0003
     17 C          -9.1771  -19.2211   21.7565 C.ar    1  UNL1       -0.0046
     18 C          -8.7891  -18.3347   22.9027 C.ar    1  UNL1       -0.0261
     19 C          -5.9129  -17.6394   22.4880 C.3     1  UNL1        0.0203
     20 C          -1.9394  -17.8462   19.9592 C.3     1  UNL1        0.0481
     21 C          -1.0302  -18.3693   18.8869 C.3     1  UNL1        0.0084
     22 C          -2.4327  -18.8891   19.0005 C.3     1  UNL1        0.0225
     23 C          -3.8544  -19.2094   19.3555 C.3     1  UNL1        0.0724
     24 N          -4.2399  -18.3646   20.5335 N.3     1  UNL1       -0.2736
     25 C          -3.0562  -17.5221   20.9066 C.3     1  UNL1        0.0772
     26 O          -1.3964  -15.8674   21.5528 O.co2   1  UNL1       -0.5491
     27 C          -0.9459  -16.8943   20.5565 C.2     1  UNL1        0.0510
     28 O           0.4981  -16.9692   20.1576 O.co2   1  UNL1       -0.5491
@<TRIPOS>UNITY_ATOM_ATTR
26 1
charge -1
@<TRIPOS>BOND
     1    26    27   ar
     2    27    28   ar
     3    20    27    1
     4    20    21    1
     5    22    21    1
     6    22    23    1
     7    23    24    1
     8    24     1    1
     9     1     2    1
    10     2     3    1
    11     4     3    1
    12     4     5    1
    13     5     6    1
    14     6     7   ar
    15     7     8   ar
    16     8     9   ar
    17     9    10   ar
    18    10    11   ar
    19    11    12    1
    20    12    13    1
    21    13    14   ar
    22    14    15   ar
    23    15    16   ar
    24    16    17   ar
    25    17    18   ar
    26     4    19    1
    27    24    25    1
    28    22    20    1
    29    19     1    1
    30    25    20    1
    31    18     4    1
    32    11     6   ar
    33    18    13   ar
@<TRIPOS>MOLECULE
*****
 28 33 0 0 0
SMALL
GASTEIGER

@<TRIPOS>ATOM
      1 C          -4.2775  -17.2555   22.5742 C.3     1  UNL1        0.0578
      2 C          -4.1785  -16.4540   23.8382 C.3     1  UNL1        0.0163
      3 C          -5.5537  -16.3453   24.4270 C.3     1  UNL1        0.0058
      4 C          -6.5027  -17.0797   23.5270 C.3     1  UNL1        0.0240
      5 C          -7.2333  -17.8652   22.4786 C.3     1  UNL1        0.0301
      6 C          -8.6965  -18.1861   22.4005 C.ar    1  UNL1       -0.0255
      7 C          -9.0147  -19.0004   21.1817 C.ar    1  UNL1       -0.0046
      8 C         -10.4269  -19.4293   20.9140 C.ar    1  UNL1       -0.0003
      9 C         -11.5209  -19.0438   21.8651 C.ar    1  UNL1       -0.0003
     10 C         -11.2027  -18.2295   23.0839 C.ar    1  UNL1       -0.0042
     11 C          -9.7905  -17.8006   23.3516 C.ar    1  UNL1       -0.0217
     12 C          -9.6915  -16.9991   24.6157 C.3     1  UNL1        0.0520
     13 C          -8.4740  -16.3850   25.2408 C.ar    1  UNL1       -0.0218
     14 C          -8.8151  -15.6622   26.5101 C.ar    1  UNL1       -0.0042
     15 C          -7.7370  -14.9752   27.2949 C.ar    1  UNL1       -0.0003
     16 C          -6.3180  -15.0111   26.8104 C.ar    1  UNL1       -0.0003
     17 C          -5.9768  -15.7340   25.5411 C.ar    1  UNL1       -0.0046
     18 C          -7.0549  -16.4209   24.7563 C.ar    1  UNL1       -0.0261
     19 C          -5.7139  -17.6422   22.3818 C.3     1  UNL1        0.0203
     20 C          -1.7603  -17.8527   19.6806 C.3     1  UNL1        0.0481
     21 C          -0.4037  -18.4571   19.4702 C.3     1  UNL1        0.0084
     22 C          -1.0176  -18.4502   20.8388 C.3     1  UNL1        0.0225
     23 C          -1.8701  -18.2992   22.0636 C.3     1  UNL1        0.0724
     24 N          -3.1397  -17.6084   21.6626 N.3     1  UNL1       -0.2736
     25 C          -3.0719  -17.3325   20.1896 C.3     1  UNL1        0.0772
     26 O          -3.1715  -16.6255   17.8772 O.co2   1  UNL1       -0.5491
     27 C          -1.9761  -17.4505   18.2517 C.2     1  UNL1        0.0510
     28 O          -0.9965  -17.8733   17.1974 O.co2   1  UNL1       -0.5491
@<TRIPOS>UNITY_ATOM_ATTR
26 1
charge -1
@<TRIPOS>BOND
     1    26    27   ar
     2    27    28   ar
     3    20    27    1
     4    20    21    1
     5    22    21    1
     6    22    23    1
     7    23    24    1
     8    24     1    1
     9     1     2    1
    10     2     3    1
    11     4     3    1
    12     4     5    1
    13     5     6    1
    14     6     7   ar
    15     7     8   ar
    16     8     9   ar
    17     9    10   ar
    18    10    11   ar
    19    11    12    1
    20    12    13    1
    21    13    14   ar
    22    14    15   ar
    23    15    16   ar
    24    16    17   ar
    25    17    18   ar
    26     4    19    1
    27    24    25    1
    28    22    20    1
    29    19     1    1
    30    25    20    1
    31    18     4    1
    32    11     6   ar
    33    18    13   ar
@<TRIPOS>MOLECULE
*****
 28 33 0 0 0
SMALL
GASTEIGER

@<TRIPOS>ATOM
      1 C           4.1194   -1.3777   25.1858 C.3     1  UNL1        0.0578
      2 C           4.8330   -2.4181   24.3746 C.3     1  UNL1        0.0163
      3 C           4.3546   -2.3093   22.9572 C.3     1  UNL1        0.0058
      4 C           3.3452   -1.2017   22.8924 C.3     1  UNL1        0.0240
      5 C           2.3832   -0.0680   23.0909 C.3     1  UNL1        0.0301
      6 C           1.5078    0.6046   22.0754 C.ar    1  UNL1       -0.0255
      7 C           0.6926    1.7008   22.6947 C.ar    1  UNL1       -0.0046
      8 C          -0.2523    2.5020   21.8491 C.ar    1  UNL1       -0.0003
      9 C          -0.3820    2.2070   20.3841 C.ar    1  UNL1       -0.0003
     10 C           0.4333    1.1108   19.7648 C.ar    1  UNL1       -0.0042
     11 C           1.3782    0.3096   20.6104 C.ar    1  UNL1       -0.0217
     12 C           2.0920   -0.7308   19.7992 C.3     1  UNL1        0.0520
     13 C           3.1116   -1.7333   20.2525 C.ar    1  UNL1       -0.0218
     14 C           3.5770   -2.5941   19.1157 C.ar    1  UNL1       -0.0042
     15 C           4.6001   -3.6645   19.3555 C.ar    1  UNL1       -0.0003
     16 C           5.1578   -3.8740   20.7320 C.ar    1  UNL1       -0.0003
     17 C           4.6924   -3.0132   21.8689 C.ar    1  UNL1       -0.0046
     18 C           3.6693   -1.9428   21.6291 C.ar    1  UNL1       -0.0261
     19 C           3.1998   -0.6259   24.2698 C.3     1  UNL1        0.0203
     20 C           3.8192   -0.7555   29.0053 C.3     1  UNL1        0.0481
     21 C           4.7155   -0.5417   30.1889 C.3     1  UNL1        0.0084
     22 C           5.3086   -0.7532   28.8274 C.3     1  UNL1        0.0225
     23 C           5.6023   -0.9860   27.3750 C.3     1  UNL1        0.0724
     24 N           4.2945   -1.1322   26.6552 N.3     1  UNL1       -0.2736
     25 C           3.1924   -0.9897   27.6629 C.3     1  UNL1        0.0772
     26 O           1.2738   -0.2379   29.0609 O.co2   1  UNL1       -0.5491
     27 C           2.5297   -0.6577   29.7655 C.2     1  UNL1        0.0510
     28 O           2.4963   -0.9798   31.2301 O.co2   1  UNL1       -0.5491
@<TRIPOS>UNITY_ATOM_ATTR
26 1
charge -1
@<TRIPOS>BOND
     1    26    27   ar
     2    27    28   ar
     3    20    27    1
     4    20    21    1
     5    22    21    1
     6    22    23    1
     7    23    24    1
     8    24     1    1
     9     1     2    1
    10     2     3    1
    11     4     3    1
    12     4     5    1
    13     5     6    1
    14     6     7   ar
    15     7     8   ar
    16     8     9   ar
    17     9    10   ar
    18    10    11   ar
    19    11    12    1
    20    12    13    1
    21    13    14   ar
    22    14    15   ar
    23    15    16   ar
    24    16    17   ar
    25    17    18   ar
    26     4    19    1
    27    24    25    1
    28    22    20    1
    29    19     1    1
    30    25    20    1
    31    18     4    1
    32    11     6   ar
    33    18    13   ar
@<TRIPOS>MOLECULE
*****
 28 33 0 0 0
SMALL
GASTEIGER

@<TRIPOS>ATOM
      1 C           3.0586   -0.1466   25.4212 C.3     1  UNL1        0.0578
      2 C           2.0106    0.8513   25.0264 C.3     1  UNL1        0.0163
      3 C           1.7644    0.7068   23.5539 C.3     1  UNL1        0.0058
      4 C           2.6603   -0.3803   23.0386 C.3     1  UNL1        0.0240
      5 C           3.6399   -1.4860   22.7781 C.3     1  UNL1        0.0301
      6 C           3.9528   -2.1723   21.4815 C.ar    1  UNL1       -0.0255
      7 C           5.0013   -3.2299   21.6603 C.ar    1  UNL1       -0.0046
      8 C           5.4601   -4.0377   20.4826 C.ar    1  UNL1       -0.0003
      9 C           4.8705   -3.7878   19.1262 C.ar    1  UNL1       -0.0003
     10 C           3.8221   -2.7301   18.9474 C.ar    1  UNL1       -0.0042
     11 C           3.3632   -1.9224   20.1251 C.ar    1  UNL1       -0.0217
     12 C           2.3152   -0.9244   19.7303 C.3     1  UNL1        0.0520
     13 C           1.5978    0.0700   20.5943 C.ar    1  UNL1       -0.0218
     14 C           0.6205    0.8832   19.7985 C.ar    1  UNL1       -0.0042
     15 C          -0.2033    1.9385   20.4750 C.ar    1  UNL1       -0.0003
     16 C          -0.0497    2.1807   21.9472 C.ar    1  UNL1       -0.0003
     17 C           0.9277    1.3675   22.7431 C.ar    1  UNL1       -0.0046
     18 C           1.7515    0.3121   22.0667 C.ar    1  UNL1       -0.0261
     19 C           3.4602   -0.9078   24.1927 C.3     1  UNL1        0.0203
     20 C           3.7590   -0.6431   29.2065 C.3     1  UNL1        0.0481
     21 C           4.9311   -0.8321   30.1232 C.3     1  UNL1        0.0084
     22 C           5.1508   -0.6724   28.6480 C.3     1  UNL1        0.0225
     23 C           5.0578   -0.4900   27.1621 C.3     1  UNL1        0.0724
     24 N           3.6086   -0.3479   26.8022 N.3     1  UNL1       -0.2736
     25 C           2.8058   -0.4425   28.0658 C.3     1  UNL1        0.0772
     26 O           3.0872   -1.0959   31.6750 O.co2   1  UNL1       -0.5491
     27 C           2.7111   -0.6982   30.2785 C.2     1  UNL1        0.0510
     28 O           1.2873   -0.3556   29.9539 O.co2   1  UNL1       -0.5491
@<TRIPOS>UNITY_ATOM_ATTR
26 1
charge -1
@<TRIPOS>BOND
     1    26    27   ar
     2    27    28   ar
     3    20    27    1
     4    20    21    1
     5    22    21    1
     6    22    23    1
     7    23    24    1
     8    24     1    1
     9     1     2    1
    10     2     3    1
    11     4     3    1
    12     4     5    1
    13     5     6    1
    14     6     7   ar
    15     7     8   ar
    16     8     9   ar
    17     9    10   ar
    18    10    11   ar
    19    11    12    1
    20    12    13    1
    21    13    14   ar
    22    14    15   ar
    23    15    16   ar
    24    16    17   ar
    25    17    18   ar
    26     4    19    1
    27    24    25    1
    28    22    20    1
    29    19     1    1
    30    25    20    1
    31    18     4    1
    32    11     6   ar
    33    18    13   ar
@<TRIPOS>MOLECULE
*****
 28 33 0 0 0
SMALL
GASTEIGER

@<TRIPOS>ATOM
      1 C           0.9810    0.9691   20.1334 C.3     1  UNL1        0.0578
      2 C           1.5518   -0.0996   19.2491 C.3     1  UNL1        0.0163
      3 C           2.4256   -0.9807   20.0917 C.3     1  UNL1        0.0058
      4 C           2.3948   -0.4565   21.4968 C.3     1  UNL1        0.0240
      5 C           2.1988    0.2551   22.8027 C.3     1  UNL1        0.0301
      6 C           2.7867   -0.0717   24.1434 C.ar    1  UNL1       -0.0255
      7 C           2.3316    0.8988   25.1927 C.ar    1  UNL1       -0.0046
      8 C           2.8057    0.7501   26.6079 C.ar    1  UNL1       -0.0003
      9 C           3.7349   -0.3691   26.9740 C.ar    1  UNL1       -0.0003
     10 C           4.1900   -1.3396   25.9247 C.ar    1  UNL1       -0.0042
     11 C           3.7159   -1.1909   24.5094 C.ar    1  UNL1       -0.0217
     12 C           4.2867   -2.2597   23.6251 C.3     1  UNL1        0.0520
     13 C           4.0693   -2.4733   22.1564 C.ar    1  UNL1       -0.0218
     14 C           4.8308   -3.6652   21.6572 C.ar    1  UNL1       -0.0042
     15 C           4.7504   -4.0547   20.2109 C.ar    1  UNL1       -0.0003
     16 C           3.9085   -3.2523   19.2638 C.ar    1  UNL1       -0.0003
     17 C           3.1469   -2.0602   19.7629 C.ar    1  UNL1       -0.0046
     18 C           3.2273   -1.6707   21.2092 C.ar    1  UNL1       -0.0261
     19 C           1.5021    0.7486   21.5226 C.3     1  UNL1        0.0203
     20 C          -1.7713    3.6673   19.6751 C.3     1  UNL1        0.0481
     21 C          -2.1813    4.7035   18.6710 C.3     1  UNL1        0.0084
     22 C          -0.9827    3.8400   18.4108 C.3     1  UNL1        0.0225
     23 C           0.1443    2.8503   18.4287 C.3     1  UNL1        0.0724
     24 N           0.0523    2.0659   19.7039 N.3     1  UNL1       -0.2736
     25 C          -1.1317    2.5709   20.4742 C.3     1  UNL1        0.0772
     26 O          -3.7173    2.8361   21.1824 O.co2   1  UNL1       -0.5491
     27 C          -2.8695    3.9557   20.6553 C.2     1  UNL1        0.0510
     28 O          -3.1198    5.3635   21.1084 O.co2   1  UNL1       -0.5491
@<TRIPOS>UNITY_ATOM_ATTR
26 1
charge -1
@<TRIPOS>BOND
     1    26    27   ar
     2    27    28   ar
     3    20    27    1
     4    20    21    1
     5    22    21    1
     6    22    23    1
     7    23    24    1
     8    24     1    1
     9     1     2    1
    10     2     3    1
    11     4     3    1
    12     4     5    1
    13     5     6    1
    14     6     7   ar
    15     7     8   ar
    16     8     9   ar
    17     9    10   ar
    18    10    11   ar
    19    11    12    1
    20    12    13    1
    21    13    14   ar
    22    14    15   ar
    23    15    16   ar
    24    16    17   ar
    25    17    18   ar
    26     4    19    1
    27    24    25    1
    28    22    20    1
    29    19     1    1
    30    25    20    1
    31    18     4    1
    32    11     6   ar
    33    18    13   ar
@<TRIPOS>MOLECULE
*****
 28 33 0 0 0
SMALL
GASTEIGER

@<TRIPOS>ATOM
      1 C           3.2427   -0.2350   25.2141 C.3     1  UNL1        0.0578
      2 C           3.9886   -1.4879   24.8623 C.3     1  UNL1        0.0163
      3 C           3.8435   -1.7149   23.3867 C.3     1  UNL1        0.0058
      4 C           3.0080   -0.6022   22.8266 C.3     1  UNL1        0.0240
      5 C           2.1646    0.5997   22.5199 C.3     1  UNL1        0.0301
      6 C           1.6136    1.0429   21.1969 C.ar    1  UNL1       -0.0255
      7 C           0.8172    2.3069   21.3306 C.ar    1  UNL1       -0.0046
      8 C           0.1772    2.9215   20.1213 C.ar    1  UNL1       -0.0003
      9 C           0.3335    2.2720   18.7783 C.ar    1  UNL1       -0.0003
     10 C           1.1299    1.0079   18.6446 C.ar    1  UNL1       -0.0042
     11 C           1.7699    0.3934   19.8539 C.ar    1  UNL1       -0.0217
     12 C           2.5158   -0.8596   19.5021 C.3     1  UNL1        0.0520
     13 C           3.2897   -1.7726   20.4064 C.ar    1  UNL1       -0.0218
     14 C           3.8860   -2.9202   19.6466 C.ar    1  UNL1       -0.0042
     15 C           4.7014   -3.9532   20.3663 C.ar    1  UNL1       -0.0003
     16 C           4.9204   -3.8387   21.8457 C.ar    1  UNL1       -0.0003
     17 C           4.3240   -2.6910   22.6056 C.ar    1  UNL1       -0.0046
     18 C           3.5087   -1.6580   21.8859 C.ar    1  UNL1       -0.0261
     19 C           2.6366    0.3124   23.9559 C.3     1  UNL1        0.0203
     20 C           2.5236    0.7053   28.9106 C.3     1  UNL1        0.0481
     21 C           2.8377    1.8084   29.8772 C.3     1  UNL1        0.0084
     22 C           3.3579    1.8721   28.4717 C.3     1  UNL1        0.0225
     23 C           3.7287    1.6619   27.0336 C.3     1  UNL1        0.0724
     24 N           3.1238    0.3651   26.5836 N.3     1  UNL1       -0.2736
     25 C           2.3790   -0.2261   27.7438 C.3     1  UNL1        0.0772
     26 O           0.2194   -0.1621   29.7401 O.co2   1  UNL1       -0.5491
     27 C           1.7132   -0.1166   29.8686 C.2     1  UNL1        0.0510
     28 O           2.3965   -0.8929   30.9551 O.co2   1  UNL1       -0.5491
@<TRIPOS>UNITY_ATOM_ATTR
26 1
charge -1
@<TRIPOS>BOND
     1    26    27   ar
     2    27    28   ar
     3    20    27    1
     4    20    21    1
     5    22    21    1
     6    22    23    1
     7    23    24    1
     8    24     1    1
     9     1     2    1
    10     2     3    1
    11     4     3    1
    12     4     5    1
    13     5     6    1
    14     6     7   ar
    15     7     8   ar
    16     8     9   ar
    17     9    10   ar
    18    10    11   ar
    19    11    12    1
    20    12    13    1
    21    13    14   ar
    22    14    15   ar
    23    15    16   ar
    24    16    17   ar
    25    17    18   ar
    26     4    19    1
    27    24    25    1
    28    22    20    1
    29    19     1    1
    30    25    20    1
    31    18     4    1
    32    11     6   ar
    33    18    13   ar
@<TRIPOS>MOLECULE
*****
 28 33 0 0 0
SMALL
GASTEIGER

@<TRIPOS>ATOM
      1 C           1.1903    1.4243   24.6304 C.3     1  UNL1        0.0578
      2 C           0.5032    2.2046   23.5493 C.3     1  UNL1        0.0163
      3 C           0.9086    1.6218   22.2280 C.3     1  UNL1        0.0058
      4 C           1.8463    0.4813   22.4925 C.3     1  UNL1        0.0240
      5 C           2.7472   -0.5976   23.0162 C.3     1  UNL1        0.0301
      6 C           3.5334   -1.6159   22.2448 C.ar    1  UNL1       -0.0255
      7 C           4.3097   -2.5166   23.1592 C.ar    1  UNL1       -0.0046
      8 C           5.1653   -3.6081   22.5879 C.ar    1  UNL1       -0.0003
      9 C           5.2448   -3.7989   21.1022 C.ar    1  UNL1       -0.0003
     10 C           4.4686   -2.8982   20.1878 C.ar    1  UNL1       -0.0042
     11 C           3.6129   -1.8067   20.7591 C.ar    1  UNL1       -0.0217
     12 C           2.9257   -1.0263   19.6779 C.3     1  UNL1        0.0520
     13 C           1.9895    0.1375   19.8153 C.ar    1  UNL1       -0.0218
     14 C           1.5244    0.6279   18.4762 C.ar    1  UNL1       -0.0042
     15 C           0.5789    1.7891   18.3897 C.ar    1  UNL1       -0.0003
     16 C           0.0985    2.4601   19.6423 C.ar    1  UNL1       -0.0003
     17 C           0.5636    1.9697   20.9815 C.ar    1  UNL1       -0.0046
     18 C           1.5091    0.8085   21.0680 C.ar    1  UNL1       -0.0261
     19 C           2.0204    0.3592   23.9773 C.3     1  UNL1        0.0203
     20 C           1.2030    1.3753   28.5115 C.3     1  UNL1        0.0481
     21 C           0.7761    2.2489   29.6537 C.3     1  UNL1        0.0084
     22 C           0.5599    2.7030   28.2405 C.3     1  UNL1        0.0225
     23 C           0.4769    2.8830   26.7537 C.3     1  UNL1        0.0724
     24 N           1.0686    1.6665   26.1058 N.3     1  UNL1       -0.2736
     25 C           1.5174    0.7346   27.1922 C.3     1  UNL1        0.0772
     26 O           2.3655   -0.9395   28.7117 O.co2   1  UNL1       -0.5491
     27 C           1.7410    0.2607   29.3592 C.2     1  UNL1        0.0510
     28 O           1.6544    0.3466   30.8542 O.co2   1  UNL1       -0.5491
@<TRIPOS>UNITY_ATOM_ATTR
26 1
charge -1
@<TRIPOS>BOND
     1    26    27   ar
     2    27    28   ar
     3    20    27    1
     4    20    21    1
     5    22    21    1
     6    22    23    1
     7    23    24    1
     8    24     1    1
     9     1     2    1
    10     2     3    1
    11     4     3    1
    12     4     5    1
    13     5     6    1
    14     6     7   ar
    15     7     8   ar
    16     8     9   ar
    17     9    10   ar
    18    10    11   ar
    19    11    12    1
    20    12    13    1
    21    13    14   ar
    22    14    15   ar
    23    15    16   ar
    24    16    17   ar
    25    17    18   ar
    26     4    19    1
    27    24    25    1
    28    22    20    1
    29    19     1    1
    30    25    20    1
    31    18     4    1
    32    11     6   ar
    33    18    13   ar
@<TRIPOS>MOLECULE
*****
 28 33 0 0 0
SMALL
GASTEIGER

@<TRIPOS>ATOM
      1 C           4.6132   -1.4604   25.8895 C.3     1  UNL1        0.0578
      2 C           3.5609   -0.3942   25.9654 C.3     1  UNL1        0.0163
      3 C           2.9687   -0.2292   24.5973 C.3     1  UNL1        0.0058
      4 C           3.6550   -1.1935   23.6758 C.3     1  UNL1        0.0240
      5 C           4.4813   -2.2291   22.9724 C.3     1  UNL1        0.0301
      6 C           4.4418   -2.6351   21.5289 C.ar    1  UNL1       -0.0255
      7 C           5.4405   -3.7152   21.2358 C.ar    1  UNL1       -0.0046
      8 C           5.5636   -4.2657   19.8460 C.ar    1  UNL1       -0.0003
      9 C           4.6879   -3.7361   18.7492 C.ar    1  UNL1       -0.0003
     10 C           3.6892   -2.6561   19.0423 C.ar    1  UNL1       -0.0042
     11 C           3.5661   -2.1055   20.4322 C.ar    1  UNL1       -0.0217
     12 C           2.5138   -1.0393   20.5081 C.3     1  UNL1        0.0520
     13 C           2.0771   -0.2393   21.6994 C.ar    1  UNL1       -0.0218
     14 C           0.9888    0.7286   21.3407 C.ar    1  UNL1       -0.0042
     15 C           0.4084    1.6279   22.3916 C.ar    1  UNL1       -0.0003
     16 C           0.9163    1.5592   23.8013 C.ar    1  UNL1       -0.0003
     17 C           2.0046    0.5913   24.1601 C.ar    1  UNL1       -0.0046
     18 C           2.5851   -0.3079   23.1092 C.ar    1  UNL1       -0.0261
     19 C           4.6714   -1.9544   24.4744 C.3     1  UNL1        0.0203
     20 C           6.5824   -3.4046   28.6113 C.3     1  UNL1        0.0481
     21 C           7.4928   -3.1178   29.7685 C.3     1  UNL1        0.0084
     22 C           6.9383   -1.9879   28.9524 C.3     1  UNL1        0.0225
     23 C           6.2440   -1.0872   27.9743 C.3     1  UNL1        0.0724
     24 N           5.4589   -1.9472   27.0288 N.3     1  UNL1       -0.2736
     25 C           5.6681   -3.3795   27.4225 C.3     1  UNL1        0.0772
     26 O           6.7425   -5.5104   30.1246 O.co2   1  UNL1       -0.5491
     27 C           6.6012   -4.8968   28.7631 C.2     1  UNL1        0.0510
     28 O           6.4786   -5.7753   27.5535 O.co2   1  UNL1       -0.5491
@<TRIPOS>UNITY_ATOM_ATTR
26 1
charge -1
@<TRIPOS>BOND
     1    26    27   ar
     2    27    28   ar
     3    20    27    1
     4    20    21    1
     5    22    21    1
     6    22    23    1
     7    23    24    1
     8    24     1    1
     9     1     2    1
    10     2     3    1
    11     4     3    1
    12     4     5    1
    13     5     6    1
    14     6     7   ar
    15     7     8   ar
    16     8     9   ar
    17     9    10   ar
    18    10    11   ar
    19    11    12    1
    20    12    13    1
    21    13    14   ar
    22    14    15   ar
    23    15    16   ar
    24    16    17   ar
    25    17    18   ar
    26     4    19    1
    27    24    25    1
    28    22    20    1
    29    19     1    1
    30    25    20    1
    31    18     4    1
    32    11     6   ar
    33    18    13   ar
@<TRIPOS>MOLECULE
*****
 28 33 0 0 0
SMALL
GASTEIGER

@<TRIPOS>ATOM
      1 C           3.7607   -0.4548   26.5269 C.3     1  UNL1        0.0578
      2 C           4.8528   -1.3102   27.0974 C.3     1  UNL1        0.0163
      3 C           5.3976   -2.1649   25.9918 C.3     1  UNL1        0.0058
      4 C           4.6423   -1.8377   24.7378 C.3     1  UNL1        0.0240
      5 C           3.7530   -1.3364   23.6389 C.3     1  UNL1        0.0301
      6 C           3.7225   -1.7512   22.1976 C.ar    1  UNL1       -0.0255
      7 C           2.6751   -0.9979   21.4326 C.ar    1  UNL1       -0.0046
      8 C           2.4791   -1.2632   19.9693 C.ar    1  UNL1       -0.0003
      9 C           3.3304   -2.2819   19.2712 C.ar    1  UNL1       -0.0003
     10 C           4.3778   -3.0352   20.0362 C.ar    1  UNL1       -0.0042
     11 C           4.5738   -2.7699   21.4995 C.ar    1  UNL1       -0.0217
     12 C           5.6659   -3.6253   22.0701 C.3     1  UNL1        0.0520
     13 C           6.1764   -3.6734   23.4797 C.ar    1  UNL1       -0.0218
     14 C           7.2843   -4.6738   23.6277 C.ar    1  UNL1       -0.0042
     15 C           7.9365   -4.8786   24.9628 C.ar    1  UNL1       -0.0003
     16 C           7.4810   -4.0831   26.1500 C.ar    1  UNL1       -0.0003
     17 C           6.3731   -3.0827   26.0021 C.ar    1  UNL1       -0.0046
     18 C           5.7208   -2.8778   24.6670 C.ar    1  UNL1       -0.0261
     19 C           3.6306   -0.7808   25.0685 C.3     1  UNL1        0.0203
     20 C           1.3217    1.5400   28.7935 C.3     1  UNL1        0.0481
     21 C           0.9744    2.9671   29.0982 C.3     1  UNL1        0.0084
     22 C           2.0445    2.6534   28.0950 C.3     1  UNL1        0.0225
     23 C           3.0461    2.0417   27.1609 C.3     1  UNL1        0.0724
     24 N           2.9424    0.5502   27.2821 N.3     1  UNL1       -0.2736
     25 C           1.8766    0.2401   28.2911 C.3     1  UNL1        0.0772
     26 O          -0.3619   -0.3503   29.3783 O.co2   1  UNL1       -0.5491
     27 C           0.3286    0.9316   29.7388 C.2     1  UNL1        0.0510
     28 O           0.0259    1.6052   31.0444 O.co2   1  UNL1       -0.5491
@<TRIPOS>UNITY_ATOM_ATTR
26 1
charge -1
@<TRIPOS>BOND
     1    26    27   ar
     2    27    28   ar
     3    20    27    1
     4    20    21    1
     5    22    21    1
     6    22    23    1
     7    23    24    1
     8    24     1    1
     9     1     2    1
    10     2     3    1
    11     4     3    1
    12     4     5    1
    13     5     6    1
    14     6     7   ar
    15     7     8   ar
    16     8     9   ar
    17     9    10   ar
    18    10    11   ar
    19    11    12    1
    20    12    13    1
    21    13    14   ar
    22    14    15   ar
    23    15    16   ar
    24    16    17   ar
    25    17    18   ar
    26     4    19    1
    27    24    25    1
    28    22    20    1
    29    19     1    1
    30    25    20    1
    31    18     4    1
    32    11     6   ar
    33    18    13   ar
