@<TRIPOS>MOLECULE
*****
 35 37 0 0 0
SMALL
GASTEIGER

@<TRIPOS>ATOM
      1 C         -11.7438  -18.2056   21.0813 C.3     1  UNL1        0.1697
      2 O         -12.6106  -17.1568   20.4495 O.3     1  UNL1       -0.3793
      3 H         -12.4781  -17.1637   19.4886 H       1  UNL1        0.2106
      4 C         -10.8570  -19.0608   20.2256 C.3     1  UNL1        0.1020
      5 N          -9.4833  -18.5837   19.8577 N.3     1  UNL1       -0.2972
      6 H          -9.5235  -18.2963   18.8798 H       1  UNL1        0.1233
      7 C          -8.6545  -20.1358   18.6727 C.3     1  UNL1        0.0161
      8 C          -8.3084  -19.5068   19.9898 C.3     1  UNL1        0.0461
      9 C          -7.9623  -18.8778   21.3068 C.3     1  UNL1        0.0161
     10 C          -7.1334  -20.4299   20.1218 C.3     1  UNL1        0.0408
     11 C          -5.7972  -19.8885   20.5359 C.ar    1  UNL1       -0.0209
     12 C          -5.3943  -19.9098   21.9806 C.ar    1  UNL1       -0.0042
     13 C          -4.0581  -19.3685   22.3946 C.ar    1  UNL1       -0.0003
     14 C          -3.1247  -18.8058   21.3639 C.ar    1  UNL1       -0.0000
     15 C          -1.7884  -18.2645   21.7779 C.ar    1  UNL1       -0.0000
     16 C          -0.8551  -17.7019   20.7473 C.ar    1  UNL1       -0.0000
     17 C          -1.2580  -17.6806   19.3025 C.ar    1  UNL1       -0.0000
     18 C          -2.5942  -18.2220   18.8885 C.ar    1  UNL1       -0.0000
     19 C          -3.5275  -18.7846   19.9192 C.ar    1  UNL1       -0.0003
     20 C          -4.8638  -19.3259   19.5052 C.ar    1  UNL1       -0.0042
     21 C         -11.7640  -18.3991   22.5686 C.3     1  UNL1        0.2358
     22 O         -10.5186  -18.8283   23.2860 O.3     1  UNL1       -0.4721
     23 C          -9.8805  -17.9166   24.2919 C.ar    1  UNL1        0.1482
     24 C          -9.7105  -18.3685   25.7120 C.ar    1  UNL1        0.0373
     25 C          -9.0725  -17.4568   26.7179 C.ar    1  UNL1       -0.0011
     26 C          -8.6046  -16.0932   26.3036 C.ar    1  UNL1       -0.0209
     27 C          -8.7746  -15.6413   24.8834 C.ar    1  UNL1        0.0091
     28 C          -9.4126  -16.5530   23.8776 C.ar    1  UNL1        0.1020
     29 C          -9.5827  -16.1011   22.4574 C.1     1  UNL1        0.1035
     30 N          -9.7528  -15.6492   21.0372 N.1     1  UNL1       -0.1907
     31 C          -7.9665  -15.1815   27.3095 C.3     1  UNL1        0.0323
     32 C          -6.4745  -15.0320   27.3461 C.3     1  UNL1        0.0464
     33 C          -5.6504  -15.4410   26.1612 C.2     1  UNL1        0.0507
     34 O          -5.6218  -14.5789   24.9341 O.co2   1  UNL1       -0.5492
     35 O          -4.8551  -16.7120   26.2036 O.co2   1  UNL1       -0.5492
@<TRIPOS>UNITY_ATOM_ATTR
34 1
charge -1
@<TRIPOS>BOND
     1     7     8    1
     2     8     9    1
     3     8    10    1
     4    10    11    1
     5    11    12   ar
     6    12    13   ar
     7    13    14   ar
     8    14    15   ar
     9    15    16   ar
    10    16    17   ar
    11    17    18   ar
    12    18    19   ar
    13    19    20   ar
    14     8     5    1
    15     5     4    1
    16     4     1    1
    17     1     2    1
    18     1    21    1
    19    21    22    1
    20    22    23    1
    21    23    24   ar
    22    24    25   ar
    23    25    26   ar
    24    26    31    1
    25    31    32    1
    26    32    33    1
    27    33    34   ar
    28    33    35   ar
    29    26    27   ar
    30    27    28   ar
    31    28    29    1
    32    29    30    3
    33    20    11   ar
    34    28    23   ar
    35    19    14   ar
    36     5     6    1
    37     2     3    1
@<TRIPOS>MOLECULE
*****
 35 37 0 0 0
SMALL
GASTEIGER

@<TRIPOS>ATOM
      1 C          -3.3119  -16.7653   22.9440 C.3     1  UNL1        0.1697
      2 O          -3.1272  -15.6019   22.0153 O.3     1  UNL1       -0.3793
      3 H          -3.8520  -14.9697   22.1410 H       1  UNL1        0.2106
      4 C          -4.4904  -16.8050   23.8712 C.3     1  UNL1        0.1020
      5 N          -4.9088  -15.5659   24.6058 N.3     1  UNL1       -0.2972
      6 H          -4.3152  -15.4992   25.4326 H       1  UNL1        0.1233
      7 C          -6.7730  -15.2045   23.6603 C.3     1  UNL1        0.0161
      8 C          -6.3251  -15.4152   25.0763 C.3     1  UNL1        0.0461
      9 C          -5.8772  -15.6258   26.4923 C.3     1  UNL1        0.0161
     10 C          -7.7414  -15.2644   25.5467 C.3     1  UNL1        0.0408
     11 C          -8.8187  -16.1374   24.9745 C.ar    1  UNL1       -0.0209
     12 C          -8.8915  -17.5863   25.3559 C.ar    1  UNL1       -0.0042
     13 C          -9.9687  -18.4593   24.7837 C.ar    1  UNL1       -0.0003
     14 C         -10.9732  -17.8834   23.8301 C.ar    1  UNL1       -0.0000
     15 C         -12.0505  -18.7564   23.2579 C.ar    1  UNL1       -0.0000
     16 C         -13.0549  -18.1805   22.3043 C.ar    1  UNL1       -0.0000
     17 C         -12.9821  -16.7316   21.9229 C.ar    1  UNL1       -0.0000
     18 C         -11.9049  -15.8587   22.4950 C.ar    1  UNL1       -0.0000
     19 C         -10.9005  -16.4345   23.4486 C.ar    1  UNL1       -0.0003
     20 C          -9.8232  -15.5615   24.0209 C.ar    1  UNL1       -0.0042
     21 C          -2.3182  -17.8889   22.9455 C.3     1  UNL1        0.2358
     22 O          -2.6654  -19.1981   22.3008 O.3     1  UNL1       -0.4721
     23 C          -3.9830  -19.3646   21.6036 C.ar    1  UNL1        0.1482
     24 C          -5.1910  -19.8025   22.3776 C.ar    1  UNL1        0.0373
     25 C          -6.5086  -19.9691   21.6803 C.ar    1  UNL1       -0.0011
     26 C          -6.6182  -19.6977   20.2092 C.ar    1  UNL1       -0.0209
     27 C          -5.4103  -19.2598   19.4352 C.ar    1  UNL1        0.0091
     28 C          -4.0927  -19.0933   20.1324 C.ar    1  UNL1        0.1020
     29 C          -2.8846  -18.6553   19.3585 C.1     1  UNL1        0.1035
     30 N          -1.6767  -18.2174   18.5846 N.1     1  UNL1       -0.1907
     31 C          -7.9359  -19.8643   19.5119 C.3     1  UNL1        0.0323
     32 C          -9.2049  -19.4541   20.1986 C.3     1  UNL1        0.0464
     33 C          -9.5450  -18.0000   20.3398 C.2     1  UNL1        0.0507
     34 O         -10.7346  -17.4349   19.6219 O.co2   1  UNL1       -0.5492
     35 O          -8.6956  -17.1111   21.1990 O.co2   1  UNL1       -0.5492
@<TRIPOS>UNITY_ATOM_ATTR
34 1
charge -1
@<TRIPOS>BOND
     1     7     8    1
     2     8     9    1
     3     8    10    1
     4    10    11    1
     5    11    12   ar
     6    12    13   ar
     7    13    14   ar
     8    14    15   ar
     9    15    16   ar
    10    16    17   ar
    11    17    18   ar
    12    18    19   ar
    13    19    20   ar
    14     8     5    1
    15     5     4    1
    16     4     1    1
    17     1     2    1
    18     1    21    1
    19    21    22    1
    20    22    23    1
    21    23    24   ar
    22    24    25   ar
    23    25    26   ar
    24    26    31    1
    25    31    32    1
    26    32    33    1
    27    33    34   ar
    28    33    35   ar
    29    26    27   ar
    30    27    28   ar
    31    28    29    1
    32    29    30    3
    33    20    11   ar
    34    28    23   ar
    35    19    14   ar
    36     5     6    1
    37     2     3    1
@<TRIPOS>MOLECULE
*****
 35 37 0 0 0
SMALL
GASTEIGER

@<TRIPOS>ATOM
      1 C          -8.5258  -16.1126   26.0810 C.3     1  UNL1        0.1697
      2 O          -8.5439  -15.6212   27.4982 O.3     1  UNL1       -0.3793
      3 H          -8.3169  -14.6783   27.5164 H       1  UNL1        0.2106
      4 C          -8.1888  -15.1694   24.9645 C.3     1  UNL1        0.1020
      5 N          -6.7650  -14.7566   24.7354 N.3     1  UNL1       -0.2972
      6 H          -6.7369  -14.2853   23.8312 H       1  UNL1        0.1233
      7 C          -6.2133  -16.3328   23.4272 C.3     1  UNL1        0.0161
      8 C          -5.6779  -15.7900   24.7190 C.3     1  UNL1        0.0461
      9 C          -5.1424  -15.2472   26.0108 C.3     1  UNL1        0.0161
     10 C          -4.5908  -16.8234   24.7026 C.3     1  UNL1        0.0408
     11 C          -4.0822  -17.3563   23.3959 C.ar    1  UNL1       -0.0209
     12 C          -4.7500  -18.5377   22.7568 C.ar    1  UNL1       -0.0042
     13 C          -4.2415  -19.0706   21.4502 C.ar    1  UNL1       -0.0003
     14 C          -3.0651  -18.4221   20.7825 C.ar    1  UNL1       -0.0000
     15 C          -2.5565  -18.9551   19.4759 C.ar    1  UNL1       -0.0000
     16 C          -1.3802  -18.3066   18.8083 C.ar    1  UNL1       -0.0000
     17 C          -0.7124  -17.1253   19.4474 C.ar    1  UNL1       -0.0000
     18 C          -1.2209  -16.5923   20.7541 C.ar    1  UNL1       -0.0000
     19 C          -2.3972  -17.2408   21.4216 C.ar    1  UNL1       -0.0003
     20 C          -2.9058  -16.7079   22.7283 C.ar    1  UNL1       -0.0042
     21 C          -8.8447  -17.5471   25.7805 C.3     1  UNL1        0.2358
     22 O         -10.1415  -17.9039   25.1163 O.3     1  UNL1       -0.4721
     23 C         -10.1528  -18.3499   23.6841 C.ar    1  UNL1        0.1482
     24 C          -8.8600  -18.6135   22.9705 C.ar    1  UNL1        0.0373
     25 C          -8.8714  -19.0595   21.5384 C.ar    1  UNL1       -0.0011
     26 C         -10.1754  -19.2419   20.8200 C.ar    1  UNL1       -0.0209
     27 C         -11.4682  -18.9783   21.5336 C.ar    1  UNL1        0.0091
     28 C         -11.4568  -18.5323   22.9657 C.ar    1  UNL1        0.1020
     29 C         -12.7496  -18.2686   23.6794 C.1     1  UNL1        0.1035
     30 N         -14.0423  -18.0049   24.3930 N.1     1  UNL1       -0.1907
     31 C         -10.1867  -19.6879   19.3878 C.3     1  UNL1        0.0323
     32 C          -8.8935  -19.9268   18.6665 C.3     1  UNL1        0.0464
     33 C          -8.6976  -21.1859   17.8750 C.2     1  UNL1        0.0507
     34 O          -9.3652  -21.3448   16.5412 O.co2   1  UNL1       -0.5492
     35 O          -7.8341  -22.2860   18.4173 O.co2   1  UNL1       -0.5492
@<TRIPOS>UNITY_ATOM_ATTR
34 1
charge -1
@<TRIPOS>BOND
     1     7     8    1
     2     8     9    1
     3     8    10    1
     4    10    11    1
     5    11    12   ar
     6    12    13   ar
     7    13    14   ar
     8    14    15   ar
     9    15    16   ar
    10    16    17   ar
    11    17    18   ar
    12    18    19   ar
    13    19    20   ar
    14     8     5    1
    15     5     4    1
    16     4     1    1
    17     1     2    1
    18     1    21    1
    19    21    22    1
    20    22    23    1
    21    23    24   ar
    22    24    25   ar
    23    25    26   ar
    24    26    31    1
    25    31    32    1
    26    32    33    1
    27    33    34   ar
    28    33    35   ar
    29    26    27   ar
    30    27    28   ar
    31    28    29    1
    32    29    30    3
    33    20    11   ar
    34    28    23   ar
    35    19    14   ar
    36     5     6    1
    37     2     3    1
@<TRIPOS>MOLECULE
*****
 35 37 0 0 0
SMALL
GASTEIGER

@<TRIPOS>ATOM
      1 C          -8.3837  -16.0810   26.3364 C.3     1  UNL1        0.1697
      2 O          -8.8346  -16.7328   27.6100 O.3     1  UNL1       -0.3793
      3 H          -8.2626  -16.4471   28.3395 H       1  UNL1        0.2106
      4 C          -7.2078  -15.1498   26.3460 C.3     1  UNL1        0.1020
      5 N          -6.4672  -14.8640   25.0732 N.3     1  UNL1       -0.2972
      6 H          -7.1083  -15.0694   24.3069 H       1  UNL1        0.1233
      7 C          -5.1039  -16.0343   26.2010 C.3     1  UNL1        0.0161
      8 C          -5.1871  -15.5856   24.7721 C.3     1  UNL1        0.0461
      9 C          -5.2703  -15.1369   23.3432 C.3     1  UNL1        0.0161
     10 C          -3.9070  -16.3072   24.4710 C.3     1  UNL1        0.0408
     11 C          -3.8204  -17.2158   23.2806 C.ar    1  UNL1       -0.0209
     12 C          -2.6819  -17.0785   22.3136 C.ar    1  UNL1       -0.0042
     13 C          -2.5953  -17.9870   21.1232 C.ar    1  UNL1       -0.0003
     14 C          -3.6471  -19.0330   20.8998 C.ar    1  UNL1       -0.0000
     15 C          -3.5604  -19.9415   19.7095 C.ar    1  UNL1       -0.0000
     16 C          -4.6122  -20.9873   19.4861 C.ar    1  UNL1       -0.0000
     17 C          -5.7506  -21.1247   20.4531 C.ar    1  UNL1       -0.0000
     18 C          -5.8373  -20.2161   21.6435 C.ar    1  UNL1       -0.0000
     19 C          -4.7855  -19.1703   21.8668 C.ar    1  UNL1       -0.0003
     20 C          -4.8721  -18.2617   23.0572 C.ar    1  UNL1       -0.0042
     21 C          -9.1088  -16.3604   25.0534 C.3     1  UNL1        0.2358
     22 O          -9.6783  -17.7238   24.7953 O.3     1  UNL1       -0.4721
     23 C          -9.8347  -18.2171   23.3873 C.ar    1  UNL1        0.1482
     24 C          -8.6298  -18.3651   22.5063 C.ar    1  UNL1        0.0373
     25 C          -8.7862  -18.8584   21.0984 C.ar    1  UNL1       -0.0011
     26 C         -10.1476  -19.2035   20.5715 C.ar    1  UNL1       -0.0209
     27 C         -11.3525  -19.0554   21.4526 C.ar    1  UNL1        0.0091
     28 C         -11.1960  -18.5622   22.8605 C.ar    1  UNL1        0.1020
     29 C         -12.4010  -18.4141   23.7416 C.1     1  UNL1        0.1035
     30 N         -13.6059  -18.2660   24.6226 N.1     1  UNL1       -0.1907
     31 C         -10.3040  -19.6967   19.1636 C.3     1  UNL1        0.0323
     32 C          -9.0936  -19.9000   18.3013 C.3     1  UNL1        0.0464
     33 C          -8.8931  -21.2028   17.5852 C.2     1  UNL1        0.0507
     34 O          -9.5102  -21.4193   16.2353 O.co2   1  UNL1       -0.5492
     35 O          -8.0755  -22.2889   18.2190 O.co2   1  UNL1       -0.5492
@<TRIPOS>UNITY_ATOM_ATTR
34 1
charge -1
@<TRIPOS>BOND
     1     7     8    1
     2     8     9    1
     3     8    10    1
     4    10    11    1
     5    11    12   ar
     6    12    13   ar
     7    13    14   ar
     8    14    15   ar
     9    15    16   ar
    10    16    17   ar
    11    17    18   ar
    12    18    19   ar
    13    19    20   ar
    14     8     5    1
    15     5     4    1
    16     4     1    1
    17     1     2    1
    18     1    21    1
    19    21    22    1
    20    22    23    1
    21    23    24   ar
    22    24    25   ar
    23    25    26   ar
    24    26    31    1
    25    31    32    1
    26    32    33    1
    27    33    34   ar
    28    33    35   ar
    29    26    27   ar
    30    27    28   ar
    31    28    29    1
    32    29    30    3
    33    20    11   ar
    34    28    23   ar
    35    19    14   ar
    36     5     6    1
    37     2     3    1
@<TRIPOS>MOLECULE
*****
 35 37 0 0 0
SMALL
GASTEIGER

@<TRIPOS>ATOM
      1 C         -10.5181  -15.7891   22.6756 C.3     1  UNL1        0.1697
      2 O          -9.6270  -15.2397   21.6012 O.3     1  UNL1       -0.3793
      3 H         -10.1694  -14.9220   20.8624 H       1  UNL1        0.2106
      4 C         -12.0069  -15.7807   22.4922 C.3     1  UNL1        0.1020
      5 N         -12.6468  -16.7170   21.5103 N.3     1  UNL1       -0.2972
      6 H         -13.5827  -16.9183   21.8624 H       1  UNL1        0.1233
      7 C         -11.5346  -17.5057   19.8852 C.3     1  UNL1        0.0161
      8 C         -12.0052  -18.0382   21.2061 C.3     1  UNL1        0.0461
      9 C         -12.4757  -18.5708   22.5271 C.3     1  UNL1        0.0161
     10 C         -11.3635  -19.3595   20.9020 C.3     1  UNL1        0.0408
     11 C          -9.9208  -19.5888   21.2428 C.ar    1  UNL1       -0.0209
     12 C          -9.5412  -20.0741   22.6105 C.ar    1  UNL1       -0.0042
     13 C          -8.0986  -20.3033   22.9513 C.ar    1  UNL1       -0.0003
     14 C          -7.0355  -20.0473   21.9245 C.ar    1  UNL1       -0.0000
     15 C          -5.5928  -20.2766   22.2654 C.ar    1  UNL1       -0.0000
     16 C          -4.5298  -20.0206   21.2386 C.ar    1  UNL1       -0.0000
     17 C          -4.9093  -19.5353   19.8710 C.ar    1  UNL1       -0.0000
     18 C          -6.3520  -19.3060   19.5301 C.ar    1  UNL1       -0.0000
     19 C          -7.4150  -19.5620   20.5569 C.ar    1  UNL1       -0.0003
     20 C          -8.8577  -19.3328   20.2161 C.ar    1  UNL1       -0.0042
     21 C          -9.9205  -16.3468   23.9332 C.3     1  UNL1        0.2358
     22 O          -8.7832  -15.6343   24.6033 O.3     1  UNL1       -0.4721
     23 C          -7.3679  -16.0200   24.2901 C.ar    1  UNL1        0.1482
     24 C          -7.0329  -16.6280   22.9604 C.ar    1  UNL1        0.0373
     25 C          -5.6176  -17.0137   22.6473 C.ar    1  UNL1       -0.0011
     26 C          -4.5372  -16.7913   23.6638 C.ar    1  UNL1       -0.0209
     27 C          -4.8722  -16.1833   24.9935 C.ar    1  UNL1        0.0091
     28 C          -6.2875  -15.7977   25.3066 C.ar    1  UNL1        0.1020
     29 C          -6.6225  -15.1896   26.6364 C.1     1  UNL1        0.1035
     30 N          -6.9576  -14.5816   27.9660 N.1     1  UNL1       -0.1907
     31 C          -3.1218  -17.1771   23.3507 C.3     1  UNL1        0.0323
     32 C          -2.4123  -16.5470   22.1890 C.3     1  UNL1        0.0464
     33 C          -2.0681  -17.3711   20.9838 C.2     1  UNL1        0.0507
     34 O          -2.6056  -16.9900   19.6362 O.co2   1  UNL1       -0.5492
     35 O          -1.1865  -18.5762   21.1262 O.co2   1  UNL1       -0.5492
@<TRIPOS>UNITY_ATOM_ATTR
34 1
charge -1
@<TRIPOS>BOND
     1     7     8    1
     2     8     9    1
     3     8    10    1
     4    10    11    1
     5    11    12   ar
     6    12    13   ar
     7    13    14   ar
     8    14    15   ar
     9    15    16   ar
    10    16    17   ar
    11    17    18   ar
    12    18    19   ar
    13    19    20   ar
    14     8     5    1
    15     5     4    1
    16     4     1    1
    17     1     2    1
    18     1    21    1
    19    21    22    1
    20    22    23    1
    21    23    24   ar
    22    24    25   ar
    23    25    26   ar
    24    26    31    1
    25    31    32    1
    26    32    33    1
    27    33    34   ar
    28    33    35   ar
    29    26    27   ar
    30    27    28   ar
    31    28    29    1
    32    29    30    3
    33    20    11   ar
    34    28    23   ar
    35    19    14   ar
    36     5     6    1
    37     2     3    1
@<TRIPOS>MOLECULE
*****
 35 37 0 0 0
SMALL
GASTEIGER

@<TRIPOS>ATOM
      1 C         -12.1729   -7.4810   17.9198 C.3     1  UNL1        0.1697
      2 O         -12.8373   -7.5977   19.2596 O.3     1  UNL1       -0.3793
      3 H         -12.1762   -7.8339   19.9289 H       1  UNL1        0.2106
      4 C         -10.6981   -7.7223   17.7904 C.3     1  UNL1        0.1020
      5 N          -9.8010   -6.6312   17.2856 N.3     1  UNL1       -0.2972
      6 H          -8.8430   -6.9651   17.3914 H       1  UNL1        0.1233
      7 C          -9.4850   -5.8586   19.2358 C.3     1  UNL1        0.0161
      8 C          -9.8554   -5.2675   17.9079 C.3     1  UNL1        0.0461
      9 C         -10.2259   -4.6763   16.5800 C.3     1  UNL1        0.0161
     10 C          -9.9099   -3.9037   18.5302 C.3     1  UNL1        0.0408
     11 C         -11.2351   -3.2534   18.7968 C.ar    1  UNL1       -0.0209
     12 C         -12.3396   -4.0381   19.4404 C.ar    1  UNL1       -0.0042
     13 C         -13.6647   -3.3878   19.7070 C.ar    1  UNL1       -0.0003
     14 C         -13.8854   -1.9527   19.3301 C.ar    1  UNL1       -0.0000
     15 C         -15.2105   -1.3024   19.5967 C.ar    1  UNL1       -0.0000
     16 C         -15.4310    0.1326   19.2198 C.ar    1  UNL1       -0.0000
     17 C         -14.3264    0.9173   18.5762 C.ar    1  UNL1       -0.0000
     18 C         -13.0013    0.2670   18.3096 C.ar    1  UNL1       -0.0000
     19 C         -12.7808   -1.1680   18.6865 C.ar    1  UNL1       -0.0003
     20 C         -11.4556   -1.8184   18.4199 C.ar    1  UNL1       -0.0042
     21 C         -12.9832   -7.1230   16.7094 C.3     1  UNL1        0.2358
     22 O         -14.4399   -7.4760   16.6507 O.3     1  UNL1       -0.4721
     23 C         -15.4374   -6.6772   17.4362 C.ar    1  UNL1        0.1482
     24 C         -15.5866   -5.2063   17.1832 C.ar    1  UNL1        0.0373
     25 C         -16.5841   -4.4076   17.9687 C.ar    1  UNL1       -0.0011
     26 C         -17.4324   -5.0797   19.0072 C.ar    1  UNL1       -0.0209
     27 C         -17.2832   -6.5507   19.2603 C.ar    1  UNL1        0.0091
     28 C         -16.2857   -7.3494   18.4748 C.ar    1  UNL1        0.1020
     29 C         -16.1365   -8.8204   18.7278 C.1     1  UNL1        0.1035
     30 N         -15.9873  -10.2913   18.9809 N.1     1  UNL1       -0.1907
     31 C         -18.4299   -4.2809   19.7927 C.3     1  UNL1        0.0323
     32 C         -18.5783   -2.8098   19.5404 C.3     1  UNL1        0.0464
     33 C         -19.0657   -1.9066   20.6345 C.2     1  UNL1        0.0507
     34 O         -18.6057   -0.4800   20.6899 O.co2   1  UNL1       -0.5492
     35 O         -20.0130   -2.4301   21.6729 O.co2   1  UNL1       -0.5492
@<TRIPOS>UNITY_ATOM_ATTR
34 1
charge -1
@<TRIPOS>BOND
     1     7     8    1
     2     8     9    1
     3     8    10    1
     4    10    11    1
     5    11    12   ar
     6    12    13   ar
     7    13    14   ar
     8    14    15   ar
     9    15    16   ar
    10    16    17   ar
    11    17    18   ar
    12    18    19   ar
    13    19    20   ar
    14     8     5    1
    15     5     4    1
    16     4     1    1
    17     1     2    1
    18     1    21    1
    19    21    22    1
    20    22    23    1
    21    23    24   ar
    22    24    25   ar
    23    25    26   ar
    24    26    31    1
    25    31    32    1
    26    32    33    1
    27    33    34   ar
    28    33    35   ar
    29    26    27   ar
    30    27    28   ar
    31    28    29    1
    32    29    30    3
    33    20    11   ar
    34    28    23   ar
    35    19    14   ar
    36     5     6    1
    37     2     3    1
@<TRIPOS>MOLECULE
*****
 35 37 0 0 0
SMALL
GASTEIGER

@<TRIPOS>ATOM
      1 C          -8.2402  -15.8833   27.1518 C.3     1  UNL1        0.1697
      2 O          -9.1927  -15.0427   27.9496 O.3     1  UNL1       -0.3793
      3 H          -8.8054  -14.1655   28.0957 H       1  UNL1        0.2106
      4 C          -6.9222  -15.3148   26.7163 C.3     1  UNL1        0.1020
      5 N          -6.6019  -15.1976   25.2556 N.3     1  UNL1       -0.2972
      6 H          -7.3330  -15.7004   24.7525 H       1  UNL1        0.1233
      7 C          -5.6121  -15.1394   23.3802 C.3     1  UNL1        0.0161
      8 C          -5.2902  -15.7032   24.7325 C.3     1  UNL1        0.0461
      9 C          -4.9682  -16.2670   26.0847 C.3     1  UNL1        0.0161
     10 C          -3.9784  -16.2088   24.2094 C.3     1  UNL1        0.0408
     11 C          -3.9525  -17.2665   23.1460 C.ar    1  UNL1       -0.0209
     12 C          -2.7459  -17.4177   22.2678 C.ar    1  UNL1       -0.0042
     13 C          -2.7200  -18.4753   21.2044 C.ar    1  UNL1       -0.0003
     14 C          -3.9007  -19.3818   21.0192 C.ar    1  UNL1       -0.0000
     15 C          -3.8748  -20.4394   19.9559 C.ar    1  UNL1       -0.0000
     16 C          -5.0555  -21.3458   19.7708 C.ar    1  UNL1       -0.0000
     17 C          -6.2621  -21.1947   20.6490 C.ar    1  UNL1       -0.0000
     18 C          -6.2880  -20.1371   21.7123 C.ar    1  UNL1       -0.0000
     19 C          -5.1073  -19.2306   21.8975 C.ar    1  UNL1       -0.0003
     20 C          -5.1332  -18.1729   22.9608 C.ar    1  UNL1       -0.0042
     21 C          -8.6058  -17.2922   26.7897 C.3     1  UNL1        0.2358
     22 O          -9.9075  -17.5758   26.1004 O.3     1  UNL1       -0.4721
     23 C          -9.9441  -17.7566   24.6118 C.ar    1  UNL1        0.1482
     24 C          -8.7214  -17.4708   23.7912 C.ar    1  UNL1        0.0373
     25 C          -8.7581  -17.6516   22.3027 C.ar    1  UNL1       -0.0011
     26 C         -10.0175  -18.1182   21.6346 C.ar    1  UNL1       -0.0209
     27 C         -11.2401  -18.4040   22.4551 C.ar    1  UNL1        0.0091
     28 C         -11.2035  -18.2232   23.9437 C.ar    1  UNL1        0.1020
     29 C         -12.4262  -18.5090   24.7643 C.1     1  UNL1        0.1035
     30 N         -13.6488  -18.7948   25.5849 N.1     1  UNL1       -0.1907
     31 C         -10.0541  -18.2990   20.1459 C.3     1  UNL1        0.0323
     32 C         -11.1899  -17.7292   19.3490 C.3     1  UNL1        0.0464
     33 C         -11.6024  -16.3005   19.5465 C.2     1  UNL1        0.0507
     34 O         -10.7077  -15.1904   19.0806 O.co2   1  UNL1       -0.5492
     35 O         -12.9094  -15.9822   20.2100 O.co2   1  UNL1       -0.5492
@<TRIPOS>UNITY_ATOM_ATTR
34 1
charge -1
@<TRIPOS>BOND
     1     7     8    1
     2     8     9    1
     3     8    10    1
     4    10    11    1
     5    11    12   ar
     6    12    13   ar
     7    13    14   ar
     8    14    15   ar
     9    15    16   ar
    10    16    17   ar
    11    17    18   ar
    12    18    19   ar
    13    19    20   ar
    14     8     5    1
    15     5     4    1
    16     4     1    1
    17     1     2    1
    18     1    21    1
    19    21    22    1
    20    22    23    1
    21    23    24   ar
    22    24    25   ar
    23    25    26   ar
    24    26    31    1
    25    31    32    1
    26    32    33    1
    27    33    34   ar
    28    33    35   ar
    29    26    27   ar
    30    27    28   ar
    31    28    29    1
    32    29    30    3
    33    20    11   ar
    34    28    23   ar
    35    19    14   ar
    36     5     6    1
    37     2     3    1
@<TRIPOS>MOLECULE
*****
 35 37 0 0 0
SMALL
GASTEIGER

@<TRIPOS>ATOM
      1 C          -8.1610  -15.9261   26.9196 C.3     1  UNL1        0.1697
      2 O          -8.8024  -16.3649   28.2027 O.3     1  UNL1       -0.3793
      3 H          -8.1946  -16.2008   28.9406 H       1  UNL1        0.2106
      4 C          -6.7807  -15.3393   26.9335 C.3     1  UNL1        0.1020
      5 N          -6.2289  -14.6910   25.6984 N.3     1  UNL1       -0.2972
      6 H          -7.0264  -14.4589   25.1063 H       1  UNL1        0.1233
      7 C          -4.6742  -16.0896   26.0547 C.3     1  UNL1        0.0161
      8 C          -5.2503  -15.4316   24.8360 C.3     1  UNL1        0.0461
      9 C          -5.8263  -14.7736   23.6173 C.3     1  UNL1        0.0161
     10 C          -4.2717  -16.1723   23.9735 C.3     1  UNL1        0.0408
     11 C          -4.7364  -17.3214   23.1286 C.ar    1  UNL1       -0.0209
     12 C          -6.1846  -17.7121   23.1251 C.ar    1  UNL1       -0.0042
     13 C          -6.6493  -18.8612   22.2803 C.ar    1  UNL1       -0.0003
     14 C          -5.6658  -19.6195   21.4390 C.ar    1  UNL1       -0.0000
     15 C          -6.1305  -20.7685   20.5941 C.ar    1  UNL1       -0.0000
     16 C          -5.1470  -21.5268   19.7529 C.ar    1  UNL1       -0.0000
     17 C          -3.6988  -21.1360   19.7565 C.ar    1  UNL1       -0.0000
     18 C          -3.2341  -19.9870   20.6013 C.ar    1  UNL1       -0.0000
     19 C          -4.2176  -19.2287   21.4425 C.ar    1  UNL1       -0.0003
     20 C          -3.7529  -18.0796   22.2874 C.ar    1  UNL1       -0.0042
     21 C          -8.9001  -16.0741   25.6228 C.3     1  UNL1        0.2358
     22 O          -9.5093  -17.3941   25.2531 O.3     1  UNL1       -0.4721
     23 C          -9.8396  -17.6928   23.8207 C.ar    1  UNL1        0.1482
     24 C          -9.9867  -16.5715   22.8354 C.ar    1  UNL1        0.0373
     25 C         -10.3170  -16.8702   21.4031 C.ar    1  UNL1       -0.0011
     26 C         -10.5001  -18.2903   20.9561 C.ar    1  UNL1       -0.0209
     27 C         -10.3530  -19.4117   21.9414 C.ar    1  UNL1        0.0091
     28 C         -10.0227  -19.1129   23.3737 C.ar    1  UNL1        0.1020
     29 C          -9.8756  -20.2342   24.3591 C.1     1  UNL1        0.1035
     30 N          -9.7284  -21.3555   25.3445 N.1     1  UNL1       -0.1907
     31 C         -10.8304  -18.5891   19.5236 C.3     1  UNL1        0.0323
     32 C         -10.5024  -19.9325   18.9428 C.3     1  UNL1        0.0464
     33 C          -9.1204  -20.2110   18.4303 C.2     1  UNL1        0.0507
     34 O          -8.0202  -19.2181   18.6625 O.co2   1  UNL1       -0.5492
     35 O          -8.8385  -21.4822   17.6858 O.co2   1  UNL1       -0.5492
@<TRIPOS>UNITY_ATOM_ATTR
34 1
charge -1
@<TRIPOS>BOND
     1     7     8    1
     2     8     9    1
     3     8    10    1
     4    10    11    1
     5    11    12   ar
     6    12    13   ar
     7    13    14   ar
     8    14    15   ar
     9    15    16   ar
    10    16    17   ar
    11    17    18   ar
    12    18    19   ar
    13    19    20   ar
    14     8     5    1
    15     5     4    1
    16     4     1    1
    17     1     2    1
    18     1    21    1
    19    21    22    1
    20    22    23    1
    21    23    24   ar
    22    24    25   ar
    23    25    26   ar
    24    26    31    1
    25    31    32    1
    26    32    33    1
    27    33    34   ar
    28    33    35   ar
    29    26    27   ar
    30    27    28   ar
    31    28    29    1
    32    29    30    3
    33    20    11   ar
    34    28    23   ar
    35    19    14   ar
    36     5     6    1
    37     2     3    1
@<TRIPOS>MOLECULE
*****
 35 37 0 0 0
SMALL
GASTEIGER

@<TRIPOS>ATOM
      1 C           1.0034    0.2481   19.9844 C.3     1  UNL1        0.1697
      2 O          -0.2956    0.7707   20.5225 O.3     1  UNL1       -0.3793
      3 H          -0.4715    1.6479   20.1475 H       1  UNL1        0.2106
      4 C           1.8008    1.0728   19.0179 C.3     1  UNL1        0.1020
      5 N           2.4342    0.4239   17.8229 N.3     1  UNL1       -0.2972
      6 H           2.1234   -0.5475   17.8160 H       1  UNL1        0.1233
      7 C           4.0120    1.7255   18.3855 C.3     1  UNL1        0.0161
      8 C           3.9277    0.4017   17.6853 C.3     1  UNL1        0.0461
      9 C           3.8434   -0.9222   16.9850 C.3     1  UNL1        0.0161
     10 C           5.4212    0.3794   17.5476 C.3     1  UNL1        0.0408
     11 C           6.2551   -0.3709   18.5435 C.ar    1  UNL1       -0.0209
     12 C           6.9392   -1.6438   18.1414 C.ar    1  UNL1       -0.0042
     13 C           7.7731   -2.3941   19.1372 C.ar    1  UNL1       -0.0003
     14 C           7.9229   -1.8714   20.5353 C.ar    1  UNL1       -0.0000
     15 C           8.7567   -2.6217   21.5311 C.ar    1  UNL1       -0.0000
     16 C           8.9065   -2.0990   22.9291 C.ar    1  UNL1       -0.0000
     17 C           8.2223   -0.8261   23.3312 C.ar    1  UNL1       -0.0000
     18 C           7.3885   -0.0759   22.3354 C.ar    1  UNL1       -0.0000
     19 C           7.2388   -0.5985   20.9374 C.ar    1  UNL1       -0.0003
     20 C           6.4049    0.1518   19.9415 C.ar    1  UNL1       -0.0042
     21 C           1.5049   -1.0990   20.4128 C.3     1  UNL1        0.2358
     22 O           2.9515   -1.4528   20.2329 O.3     1  UNL1       -0.4721
     23 C           3.7437   -1.9826   21.3913 C.ar    1  UNL1        0.1482
     24 C           3.7294   -1.2572   22.7041 C.ar    1  UNL1        0.0373
     25 C           4.5215   -1.7870   23.8624 C.ar    1  UNL1       -0.0011
     26 C           5.3279   -3.0424   23.7079 C.ar    1  UNL1       -0.0209
     27 C           5.3422   -3.7678   22.3952 C.ar    1  UNL1        0.0091
     28 C           4.5501   -3.2380   21.2369 C.ar    1  UNL1        0.1020
     29 C           4.5643   -3.9634   19.9240 C.1     1  UNL1        0.1035
     30 N           4.5785   -4.6888   18.6111 N.1     1  UNL1       -0.1907
     31 C           6.1201   -3.5722   24.8663 C.3     1  UNL1        0.0323
     32 C           7.0138   -4.7627   24.6819 C.3     1  UNL1        0.0464
     33 C           7.3209   -5.6575   25.8459 C.2     1  UNL1        0.0507
     34 O           6.3113   -5.8372   26.9406 O.co2   1  UNL1       -0.5492
     35 O           8.6376   -6.3726   25.9153 O.co2   1  UNL1       -0.5492
@<TRIPOS>UNITY_ATOM_ATTR
34 1
charge -1
@<TRIPOS>BOND
     1     7     8    1
     2     8     9    1
     3     8    10    1
     4    10    11    1
     5    11    12   ar
     6    12    13   ar
     7    13    14   ar
     8    14    15   ar
     9    15    16   ar
    10    16    17   ar
    11    17    18   ar
    12    18    19   ar
    13    19    20   ar
    14     8     5    1
    15     5     4    1
    16     4     1    1
    17     1     2    1
    18     1    21    1
    19    21    22    1
    20    22    23    1
    21    23    24   ar
    22    24    25   ar
    23    25    26   ar
    24    26    31    1
    25    31    32    1
    26    32    33    1
    27    33    34   ar
    28    33    35   ar
    29    26    27   ar
    30    27    28   ar
    31    28    29    1
    32    29    30    3
    33    20    11   ar
    34    28    23   ar
    35    19    14   ar
    36     5     6    1
    37     2     3    1
