@<TRIPOS>MOLECULE
*****
 29 31 0 0 0
SMALL
GASTEIGER

@<TRIPOS>ATOM
      1 C          -9.3427  -18.9576   19.9817 C.3     1  UNL1        0.0391
      2 C          -8.9499  -20.0485   19.0302 C.3     1  UNL1        0.1429
      3 O          -7.4783  -20.2930   19.1872 O.3     1  UNL1       -0.3518
      4 C          -6.9616  -19.3531   20.2359 C.3     1  UNL1        0.1399
      5 C          -8.1139  -18.5278   20.7269 C.3     1  UNL1        0.0635
      6 C          -5.5419  -19.2557   20.7103 C.ar    1  UNL1        0.0078
      7 C          -5.2342  -19.3311   22.1764 C.ar    1  UNL1        0.0014
      8 C          -3.8145  -19.2337   22.6508 C.ar    1  UNL1        0.0395
      9 C          -2.7026  -19.0608   21.6590 C.ar    1  UNL1        0.1677
     10 O          -1.2829  -18.9634   22.1332 O.3     1  UNL1       -0.5029
     11 C          -3.0103  -18.9854   20.1928 C.ar    1  UNL1        0.1719
     12 C          -4.4300  -19.0828   19.7185 C.ar    1  UNL1        0.0381
     13 H          -1.0906  -19.0105   23.0491 H       1  UNL1        0.2923
     14 O          -1.8983  -18.8125   19.2010 O.3     1  UNL1       -0.4684
     15 C          -1.8570  -17.5954   18.3253 C.3     1  UNL1        0.2526
     16 C          -8.0487  -17.4601   21.7785 C.3     1  UNL1        0.1399
     17 O          -8.2431  -16.0217   21.4001 O.3     1  UNL1       -0.3819
     18 H          -7.5108  -15.7350   20.8323 H       1  UNL1        0.2104
     19 C         -10.7221  -18.3951   20.1573 C.3     1  UNL1        0.0291
     20 C         -11.4243  -19.2719   23.9637 C.ar    1  UNL1        0.1718
     21 C         -10.7597  -19.2225   22.6199 C.ar    1  UNL1        0.0358
     22 C         -11.3868  -18.4445   21.5012 C.ar    1  UNL1       -0.0189
     23 C         -12.6784  -17.7159   21.7263 C.ar    1  UNL1       -0.0010
     24 C         -13.3430  -17.7653   23.0701 C.ar    1  UNL1        0.0395
     25 C         -12.7159  -18.5433   24.1888 C.ar    1  UNL1        0.1677
     26 O         -13.3806  -18.5927   25.5327 O.3     1  UNL1       -0.5029
     27 H         -14.1874  -18.1375   25.6733 H       1  UNL1        0.2923
     28 C          -9.6235  -20.9430   24.8090 C.3     1  UNL1        0.2526
     29 O         -10.7972  -20.0499   25.0824 O.3     1  UNL1       -0.4684
@<TRIPOS>BOND
     1    28    29    1
     2    29    20    1
     3    20    21   ar
     4    21    22   ar
     5    22    19    1
     6     1    19    1
     7     1     2    1
     8     2     3    1
     9     3     4    1
    10     4     6    1
    11     6     7   ar
    12     7     8   ar
    13     8     9   ar
    14     9    10    1
    15     9    11   ar
    16    11    14    1
    17    14    15    1
    18    11    12   ar
    19     4     5    1
    20     5    16    1
    21    16    17    1
    22    22    23   ar
    23    23    24   ar
    24    24    25   ar
    25    25    26    1
    26    25    20   ar
    27     5     1    1
    28    12     6   ar
    29    10    13    1
    30    17    18    1
    31    26    27    1
@<TRIPOS>MOLECULE
*****
 29 31 0 0 0
SMALL
GASTEIGER

@<TRIPOS>ATOM
      1 C          -5.5553  -16.3876   23.9548 C.3     1  UNL1        0.0391
      2 C          -6.0769  -15.1287   24.5815 C.3     1  UNL1        0.1429
      3 O          -7.5114  -14.9677   24.1738 O.3     1  UNL1       -0.3518
      4 C          -7.8764  -16.1273   23.2949 C.3     1  UNL1        0.1399
      5 C          -6.6674  -17.0048   23.1596 C.3     1  UNL1        0.0635
      6 C          -9.2152  -16.3672   22.6625 C.ar    1  UNL1        0.0078
      7 C          -9.5775  -15.6685   21.3855 C.ar    1  UNL1        0.0014
      8 C         -10.9163  -15.9084   20.7531 C.ar    1  UNL1        0.0395
      9 C         -11.8928  -16.8470   21.3976 C.ar    1  UNL1        0.1677
     10 O         -13.2317  -17.0870   20.7653 O.3     1  UNL1       -0.5029
     11 C         -11.5306  -17.5456   22.6746 C.ar    1  UNL1        0.1719
     12 C         -10.1917  -17.3057   23.3071 C.ar    1  UNL1        0.0381
     13 H         -13.4581  -16.6506   19.9676 H       1  UNL1        0.2923
     14 O         -12.5072  -18.4842   23.3192 O.3     1  UNL1       -0.4684
     15 C         -13.7351  -17.9440   23.9903 C.3     1  UNL1        0.2526
     16 C          -6.5850  -18.2763   22.3681 C.3     1  UNL1        0.1399
     17 O          -6.7011  -18.2380   20.8731 O.3     1  UNL1       -0.3819
     18 H          -7.5937  -17.9502   20.6253 H       1  UNL1        0.2104
     19 C          -4.1655  -16.9336   24.0980 C.3     1  UNL1        0.0291
     20 C          -2.6744  -19.0733   21.1066 C.ar    1  UNL1        0.1718
     21 C          -3.4628  -18.6996   22.3267 C.ar    1  UNL1        0.0358
     22 C          -3.3770  -17.3072   22.8778 C.ar    1  UNL1       -0.0189
     23 C          -2.5028  -16.2883   22.2088 C.ar    1  UNL1       -0.0010
     24 C          -1.7144  -16.6620   20.9886 C.ar    1  UNL1        0.0395
     25 C          -1.8002  -18.0545   20.4376 C.ar    1  UNL1        0.1677
     26 O          -1.0117  -18.4281   19.2174 O.3     1  UNL1       -0.5029
     27 H          -0.4656  -17.7916   18.7994 H       1  UNL1        0.2923
     28 C          -4.0037  -20.9173   19.8487 C.3     1  UNL1        0.2526
     29 O          -2.7602  -20.4657   20.5556 O.3     1  UNL1       -0.4684
@<TRIPOS>BOND
     1    28    29    1
     2    29    20    1
     3    20    21   ar
     4    21    22   ar
     5    22    19    1
     6     1    19    1
     7     1     2    1
     8     2     3    1
     9     3     4    1
    10     4     6    1
    11     6     7   ar
    12     7     8   ar
    13     8     9   ar
    14     9    10    1
    15     9    11   ar
    16    11    14    1
    17    14    15    1
    18    11    12   ar
    19     4     5    1
    20     5    16    1
    21    16    17    1
    22    22    23   ar
    23    23    24   ar
    24    24    25   ar
    25    25    26    1
    26    25    20   ar
    27     5     1    1
    28    12     6   ar
    29    10    13    1
    30    17    18    1
    31    26    27    1
@<TRIPOS>MOLECULE
*****
 29 31 0 0 0
SMALL
GASTEIGER

@<TRIPOS>ATOM
      1 C          -5.6238  -19.1333   22.2226 C.3     1  UNL1        0.0391
      2 C          -6.1026  -20.4436   21.6715 C.3     1  UNL1        0.1429
      3 O          -7.5998  -20.4646   21.7603 O.3     1  UNL1       -0.3518
      4 C          -8.0464  -19.1672   22.3664 C.3     1  UNL1        0.1399
      5 C          -6.8251  -18.3444   22.6520 C.3     1  UNL1        0.0635
      6 C          -9.4651  -18.7634   22.6389 C.ar    1  UNL1        0.0078
      7 C         -10.0664  -19.0032   23.9920 C.ar    1  UNL1        0.0014
      8 C         -11.4851  -18.5994   24.2646 C.ar    1  UNL1        0.0395
      9 C         -12.3024  -17.9558   23.1840 C.ar    1  UNL1        0.1677
     10 O         -13.7212  -17.5520   23.4564 O.3     1  UNL1       -0.5029
     11 C         -11.7011  -17.7160   21.8308 C.ar    1  UNL1        0.1719
     12 C         -10.2824  -18.1198   21.5583 C.ar    1  UNL1        0.0381
     13 H         -14.0968  -17.7018   24.3016 H       1  UNL1        0.2923
     14 O         -12.5185  -17.0724   20.7502 O.3     1  UNL1       -0.4684
     15 C         -11.8762  -16.1077   19.7980 C.3     1  UNL1        0.2526
     16 C          -6.8082  -16.9734   23.2604 C.3     1  UNL1        0.1399
     17 O          -7.3795  -15.8103   22.5048 O.3     1  UNL1       -0.3819
     18 H          -6.8431  -15.6435   21.7140 H       1  UNL1        0.2104
     19 C          -4.1946  -18.6897   22.3260 C.3     1  UNL1        0.0291
     20 C          -1.0876  -18.3968   19.8743 C.ar    1  UNL1        0.1718
     21 C          -1.8954  -18.6208   21.1182 C.ar    1  UNL1        0.0358
     22 C          -3.3869  -18.4657   21.0820 C.ar    1  UNL1       -0.0189
     23 C          -4.0707  -18.0868   19.8019 C.ar    1  UNL1       -0.0010
     24 C          -3.2630  -17.8629   18.5580 C.ar    1  UNL1        0.0395
     25 C          -1.7714  -18.0179   18.5942 C.ar    1  UNL1        0.1677
     26 O          -0.9637  -17.7940   17.3501 O.3     1  UNL1       -0.5029
     27 H          -1.3909  -17.5572   16.5505 H       1  UNL1        0.2923
     28 C           1.2703  -17.3855   20.2829 C.3     1  UNL1        0.2526
     29 O           0.4039  -18.5519   19.9105 O.3     1  UNL1       -0.4684
@<TRIPOS>BOND
     1    28    29    1
     2    29    20    1
     3    20    21   ar
     4    21    22   ar
     5    22    19    1
     6     1    19    1
     7     1     2    1
     8     2     3    1
     9     3     4    1
    10     4     6    1
    11     6     7   ar
    12     7     8   ar
    13     8     9   ar
    14     9    10    1
    15     9    11   ar
    16    11    14    1
    17    14    15    1
    18    11    12   ar
    19     4     5    1
    20     5    16    1
    21    16    17    1
    22    22    23   ar
    23    23    24   ar
    24    24    25   ar
    25    25    26    1
    26    25    20   ar
    27     5     1    1
    28    12     6   ar
    29    10    13    1
    30    17    18    1
    31    26    27    1
@<TRIPOS>MOLECULE
*****
 29 31 0 0 0
SMALL
GASTEIGER

@<TRIPOS>ATOM
      1 C          -5.9330  -15.8844   24.2408 C.3     1  UNL1        0.0391
      2 C          -6.3705  -15.6290   25.6527 C.3     1  UNL1        0.1429
      3 O          -7.8204  -15.9972   25.7626 O.3     1  UNL1       -0.3518
      4 C          -8.2791  -16.4801   24.4185 C.3     1  UNL1        0.1399
      5 C          -7.1126  -16.4104   23.4781 C.3     1  UNL1        0.0635
      6 C          -9.6616  -16.9502   24.0752 C.ar    1  UNL1        0.0078
      7 C         -10.2697  -18.1002   24.8219 C.ar    1  UNL1        0.0014
      8 C         -11.6522  -18.5703   24.4786 C.ar    1  UNL1        0.0395
      9 C         -12.4264  -17.8903   23.3886 C.ar    1  UNL1        0.1677
     10 O         -13.8089  -18.3603   23.0452 O.3     1  UNL1       -0.5029
     11 C         -11.8183  -16.7403   22.6419 C.ar    1  UNL1        0.1719
     12 C         -10.4358  -16.2702   22.9852 C.ar    1  UNL1        0.0381
     13 H         -14.1889  -19.0787   23.5115 H       1  UNL1        0.2923
     14 O         -12.5926  -16.0603   21.5518 O.3     1  UNL1       -0.4684
     15 C         -12.1053  -16.1232   20.1345 C.3     1  UNL1        0.2526
     16 C          -7.1238  -16.7985   22.0292 C.3     1  UNL1        0.1399
     17 O          -6.9674  -18.2378   21.6370 O.3     1  UNL1       -0.3819
     18 H          -6.0800  -18.5446   21.8802 H       1  UNL1        0.2104
     19 C          -4.5575  -15.6542   23.6887 C.3     1  UNL1        0.0291
     20 C          -2.1658  -17.5825   21.1764 C.ar    1  UNL1        0.1718
     21 C          -2.8932  -16.4670   21.8666 C.ar    1  UNL1        0.0358
     22 C          -3.8300  -16.7697   22.9984 C.ar    1  UNL1       -0.0189
     23 C          -4.0392  -18.1879   23.4400 C.ar    1  UNL1       -0.0010
     24 C          -3.3118  -19.3033   22.7497 C.ar    1  UNL1        0.0395
     25 C          -2.3750  -19.0007   21.6180 C.ar    1  UNL1        0.1677
     26 O          -1.6476  -20.1162   20.9277 O.3     1  UNL1       -0.5029
     27 H          -1.7783  -21.0021   21.2035 H       1  UNL1        0.2923
     28 C           0.2490  -17.4602   20.2257 C.3     1  UNL1        0.2526
     29 O          -1.2290  -17.2798   20.0446 O.3     1  UNL1       -0.4684
@<TRIPOS>BOND
     1    28    29    1
     2    29    20    1
     3    20    21   ar
     4    21    22   ar
     5    22    19    1
     6     1    19    1
     7     1     2    1
     8     2     3    1
     9     3     4    1
    10     4     6    1
    11     6     7   ar
    12     7     8   ar
    13     8     9   ar
    14     9    10    1
    15     9    11   ar
    16    11    14    1
    17    14    15    1
    18    11    12   ar
    19     4     5    1
    20     5    16    1
    21    16    17    1
    22    22    23   ar
    23    23    24   ar
    24    24    25   ar
    25    25    26    1
    26    25    20   ar
    27     5     1    1
    28    12     6   ar
    29    10    13    1
    30    17    18    1
    31    26    27    1
@<TRIPOS>MOLECULE
*****
 29 31 0 0 0
SMALL
GASTEIGER

@<TRIPOS>ATOM
      1 C          -6.4777  -20.5443   19.9758 C.3     1  UNL1        0.0391
      2 C          -7.3482  -20.9452   18.8219 C.3     1  UNL1        0.1429
      3 O          -8.7385  -20.4543   19.0976 O.3     1  UNL1       -0.3518
      4 C          -8.7273  -19.7501   20.4219 C.3     1  UNL1        0.1399
      5 C          -7.3301  -19.8057   20.9647 C.3     1  UNL1        0.0635
      6 C          -9.9063  -19.1037   21.0868 C.ar    1  UNL1        0.0078
      7 C         -10.3305  -19.5453   22.4561 C.ar    1  UNL1        0.0014
      8 C         -11.5095  -18.8989   23.1210 C.ar    1  UNL1        0.0395
      9 C         -12.2644  -17.8109   22.4165 C.ar    1  UNL1        0.1677
     10 O         -13.4434  -17.1644   23.0813 O.3     1  UNL1       -0.5029
     11 C         -11.8402  -17.3692   21.0472 C.ar    1  UNL1        0.1719
     12 C         -10.6612  -18.0156   20.3823 C.ar    1  UNL1        0.0381
     13 H         -13.7084  -17.4402   23.9367 H       1  UNL1        0.2923
     14 O         -12.5952  -16.2811   20.3427 O.3     1  UNL1       -0.4684
     15 C         -11.9690  -15.5630   19.1841 C.3     1  UNL1        0.2526
     16 C          -6.8666  -19.2247   22.2676 C.3     1  UNL1        0.1399
     17 O          -6.7268  -17.7389   22.4189 O.3     1  UNL1       -0.3819
     18 H          -6.0186  -17.4199   21.8379 H       1  UNL1        0.2104
     19 C          -5.0122  -20.8316   20.1162 C.3     1  UNL1        0.0291
     20 C          -2.7403  -18.1693   21.9873 C.ar    1  UNL1        0.1718
     21 C          -3.7057  -19.2930   21.7520 C.ar    1  UNL1        0.0358
     22 C          -4.0468  -19.7079   20.3514 C.ar    1  UNL1       -0.0189
     23 C          -3.4225  -18.9991   19.1862 C.ar    1  UNL1       -0.0010
     24 C          -2.4571  -17.8754   19.4215 C.ar    1  UNL1        0.0395
     25 C          -2.1161  -17.4605   20.8220 C.ar    1  UNL1        0.1677
     26 O          -1.1506  -16.3368   21.0573 O.3     1  UNL1       -0.5029
     27 H          -0.7607  -15.8940   20.3293 H       1  UNL1        0.2923
     28 C          -3.4925  -17.5160   24.3867 C.3     1  UNL1        0.2526
     29 O          -2.3992  -17.7544   23.3878 O.3     1  UNL1       -0.4684
@<TRIPOS>BOND
     1    28    29    1
     2    29    20    1
     3    20    21   ar
     4    21    22   ar
     5    22    19    1
     6     1    19    1
     7     1     2    1
     8     2     3    1
     9     3     4    1
    10     4     6    1
    11     6     7   ar
    12     7     8   ar
    13     8     9   ar
    14     9    10    1
    15     9    11   ar
    16    11    14    1
    17    14    15    1
    18    11    12   ar
    19     4     5    1
    20     5    16    1
    21    16    17    1
    22    22    23   ar
    23    23    24   ar
    24    24    25   ar
    25    25    26    1
    26    25    20   ar
    27     5     1    1
    28    12     6   ar
    29    10    13    1
    30    17    18    1
    31    26    27    1
@<TRIPOS>MOLECULE
*****
 29 31 0 0 0
SMALL
GASTEIGER

@<TRIPOS>ATOM
      1 C          -6.3869  -20.4694   20.2029 C.3     1  UNL1        0.0391
      2 C          -7.2417  -20.7811   19.0104 C.3     1  UNL1        0.1429
      3 O          -8.5324  -20.0309   19.1564 O.3     1  UNL1       -0.3518
      4 C          -8.4752  -19.2555   20.4391 C.3     1  UNL1        0.1399
      5 C          -7.1492  -19.5265   21.0858 C.3     1  UNL1        0.0635
      6 C          -9.5545  -18.3653   20.9801 C.ar    1  UNL1        0.0078
      7 C         -10.8641  -18.2501   20.2577 C.ar    1  UNL1        0.0014
      8 C         -11.9434  -17.3600   20.7987 C.ar    1  UNL1        0.0395
      9 C         -11.7131  -16.5850   22.0621 C.ar    1  UNL1        0.1677
     10 O         -12.7924  -15.6948   22.6033 O.3     1  UNL1       -0.5029
     11 C         -10.4036  -16.7001   22.7846 C.ar    1  UNL1        0.1719
     12 C          -9.3243  -17.5903   22.2436 C.ar    1  UNL1        0.0381
     13 H         -13.6104  -15.6228   22.1520 H       1  UNL1        0.2923
     14 O         -10.1734  -15.9251   24.0481 O.3     1  UNL1       -0.4684
     15 C          -8.8860  -16.0840   24.8013 C.3     1  UNL1        0.2526
     16 C          -6.6698  -18.9549   22.3872 C.3     1  UNL1        0.1399
     17 O          -5.9320  -17.6490   22.4064 O.3     1  UNL1       -0.3819
     18 H          -5.0816  -17.7513   21.9511 H       1  UNL1        0.2104
     19 C          -5.0112  -21.0063   20.4661 C.3     1  UNL1        0.0291
     20 C          -2.1290  -18.5092   19.3672 C.ar    1  UNL1        0.1718
     21 C          -3.2979  -19.4462   19.2911 C.ar    1  UNL1        0.0358
     22 C          -3.8423  -20.0693   20.5423 C.ar    1  UNL1       -0.0189
     23 C          -3.2178  -19.7555   21.8695 C.ar    1  UNL1       -0.0010
     24 C          -2.0489  -18.8186   21.9455 C.ar    1  UNL1        0.0395
     25 C          -1.5046  -18.1954   20.6944 C.ar    1  UNL1        0.1677
     26 O          -0.3356  -17.2584   20.7706 O.3     1  UNL1       -0.5029
     27 H           0.0545  -17.0624   21.5996 H       1  UNL1        0.2923
     28 C          -2.4769  -17.0548   17.2427 C.3     1  UNL1        0.2526
     29 O          -1.5846  -17.8860   18.1161 O.3     1  UNL1       -0.4684
@<TRIPOS>BOND
     1    28    29    1
     2    29    20    1
     3    20    21   ar
     4    21    22   ar
     5    22    19    1
     6     1    19    1
     7     1     2    1
     8     2     3    1
     9     3     4    1
    10     4     6    1
    11     6     7   ar
    12     7     8   ar
    13     8     9   ar
    14     9    10    1
    15     9    11   ar
    16    11    14    1
    17    14    15    1
    18    11    12   ar
    19     4     5    1
    20     5    16    1
    21    16    17    1
    22    22    23   ar
    23    23    24   ar
    24    24    25   ar
    25    25    26    1
    26    25    20   ar
    27     5     1    1
    28    12     6   ar
    29    10    13    1
    30    17    18    1
    31    26    27    1
@<TRIPOS>MOLECULE
*****
 29 31 0 0 0
SMALL
GASTEIGER

@<TRIPOS>ATOM
      1 C          -5.5679  -17.9324   22.8219 C.3     1  UNL1        0.0391
      2 C          -5.7318  -16.7766   23.7638 C.3     1  UNL1        0.1429
      3 O          -7.1440  -16.2836   23.6515 O.3     1  UNL1       -0.3518
      4 C          -7.8530  -17.1348   22.6401 C.3     1  UNL1        0.1399
      5 C          -6.8789  -18.1538   22.1274 C.3     1  UNL1        0.0635
      6 C          -9.2846  -16.9920   22.2159 C.ar    1  UNL1        0.0078
      7 C          -9.6517  -16.0273   21.1275 C.ar    1  UNL1        0.0014
      8 C         -11.0834  -15.8845   20.7033 C.ar    1  UNL1        0.0395
      9 C         -12.1479  -16.7065   21.3674 C.ar    1  UNL1        0.1677
     10 O         -13.5796  -16.5638   20.9432 O.3     1  UNL1       -0.5029
     11 C         -11.7808  -17.6712   22.4557 C.ar    1  UNL1        0.1719
     12 C         -10.3491  -17.8140   22.8800 C.ar    1  UNL1        0.0381
     13 H         -13.8090  -15.9612   20.2634 H       1  UNL1        0.2923
     14 O         -12.8454  -18.4933   23.1199 O.3     1  UNL1       -0.4684
     15 C         -12.9207  -18.5548   24.6167 C.3     1  UNL1        0.2526
     16 C          -7.1655  -19.2089   21.1005 C.3     1  UNL1        0.1399
     17 O          -7.3507  -18.8252   19.6623 O.3     1  UNL1       -0.3819
     18 H          -8.1535  -18.2883   19.5717 H       1  UNL1        0.2104
     19 C          -4.3134  -18.7273   22.6115 C.3     1  UNL1        0.0291
     20 C          -1.3938  -17.5034   20.2181 C.ar    1  UNL1        0.1718
     21 C          -2.2190  -17.7173   21.4523 C.ar    1  UNL1        0.0358
     22 C          -3.4881  -18.5134   21.3772 C.ar    1  UNL1       -0.0189
     23 C          -3.9320  -19.0955   20.0680 C.ar    1  UNL1       -0.0010
     24 C          -3.1068  -18.8815   18.8339 C.ar    1  UNL1        0.0395
     25 C          -1.8377  -18.0855   18.9089 C.ar    1  UNL1        0.1677
     26 O          -1.0124  -17.8715   17.6747 O.3     1  UNL1       -0.5029
     27 H          -1.2897  -18.2352   16.8568 H       1  UNL1        0.2923
     28 C           1.2006  -17.4093   20.3188 C.3     1  UNL1        0.2526
     29 O          -0.1247  -16.7073   20.2932 O.3     1  UNL1       -0.4684
@<TRIPOS>BOND
     1    28    29    1
     2    29    20    1
     3    20    21   ar
     4    21    22   ar
     5    22    19    1
     6     1    19    1
     7     1     2    1
     8     2     3    1
     9     3     4    1
    10     4     6    1
    11     6     7   ar
    12     7     8   ar
    13     8     9   ar
    14     9    10    1
    15     9    11   ar
    16    11    14    1
    17    14    15    1
    18    11    12   ar
    19     4     5    1
    20     5    16    1
    21    16    17    1
    22    22    23   ar
    23    23    24   ar
    24    24    25   ar
    25    25    26    1
    26    25    20   ar
    27     5     1    1
    28    12     6   ar
    29    10    13    1
    30    17    18    1
    31    26    27    1
@<TRIPOS>MOLECULE
*****
 29 31 0 0 0
SMALL
GASTEIGER

@<TRIPOS>ATOM
      1 C         -12.8744   -4.7397   19.3526 C.3     1  UNL1        0.0391
      2 C         -14.0579   -4.1536   20.0638 C.3     1  UNL1        0.1429
      3 O         -15.1466   -5.1854   20.0801 O.3     1  UNL1       -0.3518
      4 C         -14.6359   -6.4092   19.3790 C.3     1  UNL1        0.1399
      5 C         -13.2316   -6.1337   18.9294 C.3     1  UNL1        0.0635
      6 C         -15.3960   -7.6845   19.1651 C.ar    1  UNL1        0.0078
      7 C         -14.7816   -8.7998   18.3722 C.ar    1  UNL1        0.0014
      8 C         -15.5417  -10.0752   18.1583 C.ar    1  UNL1        0.0395
      9 C         -16.9162  -10.2352   18.7372 C.ar    1  UNL1        0.1677
     10 O         -17.6764  -11.5105   18.5234 O.3     1  UNL1       -0.5029
     11 C         -17.5305   -9.1199   19.5301 C.ar    1  UNL1        0.1719
     12 C         -16.7705   -7.8445   19.7440 C.ar    1  UNL1        0.0381
     13 H         -17.2927  -12.2072   18.0281 H       1  UNL1        0.2923
     14 O         -18.9051   -9.2799   20.1091 O.3     1  UNL1       -0.4684
     15 C         -19.6695   -8.0746   20.5705 C.3     1  UNL1        0.2526
     16 C         -12.3409   -7.0853   18.1870 C.3     1  UNL1        0.1399
     17 O         -11.1056   -7.6248   18.8449 O.3     1  UNL1       -0.3819
     18 H         -10.4782   -6.9010   18.9976 H       1  UNL1        0.2104
     19 C         -11.5638   -4.0524   19.1077 C.3     1  UNL1        0.0291
     20 C         -12.2680   -0.2556   18.1920 C.ar    1  UNL1        0.1718
     21 C         -12.3024   -1.5689   18.9159 C.ar    1  UNL1        0.0358
     22 C         -11.5294   -2.7391   18.3837 C.ar    1  UNL1       -0.0189
     23 C         -10.7221   -2.5960   17.1277 C.ar    1  UNL1       -0.0010
     24 C         -10.6877   -1.2827   16.4038 C.ar    1  UNL1        0.0395
     25 C         -11.4607   -0.1125   16.9359 C.ar    1  UNL1        0.1677
     26 O         -11.4263    1.2008   16.2119 O.3     1  UNL1       -0.5029
     27 H         -10.9220    1.2902   15.4273 H       1  UNL1        0.2923
     28 C         -14.5355    0.9450   18.6002 C.3     1  UNL1        0.2526
     29 O         -13.0410    0.9145   18.7241 O.3     1  UNL1       -0.4684
@<TRIPOS>BOND
     1    28    29    1
     2    29    20    1
     3    20    21   ar
     4    21    22   ar
     5    22    19    1
     6     1    19    1
     7     1     2    1
     8     2     3    1
     9     3     4    1
    10     4     6    1
    11     6     7   ar
    12     7     8   ar
    13     8     9   ar
    14     9    10    1
    15     9    11   ar
    16    11    14    1
    17    14    15    1
    18    11    12   ar
    19     4     5    1
    20     5    16    1
    21    16    17    1
    22    22    23   ar
    23    23    24   ar
    24    24    25   ar
    25    25    26    1
    26    25    20   ar
    27     5     1    1
    28    12     6   ar
    29    10    13    1
    30    17    18    1
    31    26    27    1
@<TRIPOS>MOLECULE
*****
 29 31 0 0 0
SMALL
GASTEIGER

@<TRIPOS>ATOM
      1 C           7.2963   -3.3036   23.8107 C.3     1  UNL1        0.0391
      2 C           6.1311   -2.5485   24.3780 C.3     1  UNL1        0.1429
      3 O           5.2829   -2.0770   23.2341 O.3     1  UNL1       -0.3518
      4 C           5.9240   -2.5409   21.9598 C.3     1  UNL1        0.1399
      5 C           7.1684   -3.2989   22.3162 C.3     1  UNL1        0.0635
      6 C           5.4109   -2.2906   20.5727 C.ar    1  UNL1        0.0078
      7 C           3.9852   -2.6086   20.2317 C.ar    1  UNL1        0.0014
      8 C           3.4721   -2.3584   18.8446 C.ar    1  UNL1        0.0395
      9 C           4.3847   -1.7901   17.7985 C.ar    1  UNL1        0.1677
     10 O           3.8716   -1.5397   16.4114 O.3     1  UNL1       -0.5029
     11 C           5.8103   -1.4720   18.1396 C.ar    1  UNL1        0.1719
     12 C           6.3235   -1.7223   19.5267 C.ar    1  UNL1        0.0381
     13 H           2.9811   -1.7384   16.1983 H       1  UNL1        0.2923
     14 O           6.7229   -0.9037   17.0935 O.3     1  UNL1       -0.4684
     15 C           6.7494    0.5753   16.8448 C.3     1  UNL1        0.2526
     16 C           8.1180   -3.9398   21.3479 C.3     1  UNL1        0.1399
     17 O           7.9287   -5.3733   20.9490 O.3     1  UNL1       -0.3819
     18 H           8.0721   -5.9450   21.7194 H       1  UNL1        0.2104
     19 C           8.3964   -3.9500   24.5994 C.3     1  UNL1        0.0291
     20 C           7.7869   -6.6230   27.4689 C.ar    1  UNL1        0.1718
     21 C           8.0278   -5.3120   26.7810 C.ar    1  UNL1        0.0358
     22 C           8.1555   -5.2611   25.2873 C.ar    1  UNL1       -0.0189
     23 C           8.0424   -6.5212   24.4815 C.ar    1  UNL1       -0.0010
     24 C           7.8016   -7.8322   25.1694 C.ar    1  UNL1        0.0395
     25 C           7.6738   -7.8831   26.6631 C.ar    1  UNL1        0.1677
     26 O           7.4329   -9.1942   27.3509 O.3     1  UNL1       -0.5029
     27 H           7.3623   -9.9813   26.8476 H       1  UNL1        0.2923
     28 C           6.9144   -5.5932   29.6888 C.3     1  UNL1        0.2526
     29 O           7.6591   -6.6739   28.9625 O.3     1  UNL1       -0.4684
@<TRIPOS>BOND
     1    28    29    1
     2    29    20    1
     3    20    21   ar
     4    21    22   ar
     5    22    19    1
     6     1    19    1
     7     1     2    1
     8     2     3    1
     9     3     4    1
    10     4     6    1
    11     6     7   ar
    12     7     8   ar
    13     8     9   ar
    14     9    10    1
    15     9    11   ar
    16    11    14    1
    17    14    15    1
    18    11    12   ar
    19     4     5    1
    20     5    16    1
    21    16    17    1
    22    22    23   ar
    23    23    24   ar
    24    24    25   ar
    25    25    26    1
    26    25    20   ar
    27     5     1    1
    28    12     6   ar
    29    10    13    1
    30    17    18    1
    31    26    27    1
