@<TRIPOS>MOLECULE
*****
 34 37 0 0 0
SMALL
GASTEIGER

@<TRIPOS>ATOM
      1 C          -2.8428    3.9573   20.9210 C.ar    1  UNL1        0.2601
      2 N          -1.9456    2.7622   21.0504 N.ar    1  UNL1       -0.1870
      3 C          -0.8991    2.8501   19.9794 C.ar    1  UNL1        0.2036
      4 N          -1.1496    4.0995   19.1879 N.ar    1  UNL1       -0.0556
      5 O          -2.3509    4.7838   19.7698 O.2     1  UNL1       -0.3324
      6 C           0.2042    1.8620   19.7415 C.ar    1  UNL1        0.0389
      7 C           0.7335    1.6484   18.3544 C.ar    1  UNL1        0.0044
      8 C           1.8367    0.6604   18.1165 C.ar    1  UNL1        0.0147
      9 C           2.4107   -0.1140   19.2658 C.ar    1  UNL1        0.0499
     10 C           1.8814    0.0996   20.6529 C.ar    1  UNL1       -0.0067
     11 C           0.7782    1.0877   20.8908 C.ar    1  UNL1        0.0002
     12 C           2.6389   -0.8021   21.5820 C.3     1  UNL1        0.0495
     13 C           3.6363   -1.5730   20.7691 C.3     1  UNL1        0.1029
     14 N           3.4953   -1.1478   19.3376 N.am    1  UNL1       -0.2586
     15 C           4.2979   -1.6654   18.1809 C.2     1  UNL1        0.2297
     16 O           4.0433   -1.1433   16.7979 O.2     1  UNL1       -0.2745
     17 C           5.3552   -2.7051   18.4072 C.3     1  UNL1        0.0915
     18 C           4.9762   -4.1538   18.4929 C.3     1  UNL1        0.0513
     19 C           4.7145   -4.7829   19.8293 C.2     1  UNL1        0.0508
     20 O           3.5480   -5.7090   20.0068 O.co2   1  UNL1       -0.5492
     21 O           5.6195   -4.4859   20.9881 O.co2   1  UNL1       -0.5492
     22 C          -6.3417    5.4000   22.1152 C.ar    1  UNL1        0.0716
     23 C          -6.3879    4.8980   23.5281 C.ar    1  UNL1        0.0475
     24 C          -5.2526    4.0825   24.0718 C.ar    1  UNL1        0.1476
     25 C          -4.0708    3.7689   23.2028 C.ar    1  UNL1        0.0420
     26 C          -4.0246    4.2709   21.7900 C.ar    1  UNL1        0.0598
     27 C          -5.1600    5.0864   21.2463 C.ar    1  UNL1        0.0152
     28 N          -8.6126    7.0311   21.0279 N.1     1  UNL1       -0.1908
     29 C          -7.4772    6.2155   21.5715 C.1     1  UNL1        0.1005
     30 O          -5.2988    3.5805   25.4845 O.3     1  UNL1       -0.4044
     31 C          -4.5995    4.3392   26.5733 C.3     1  UNL1        0.5753
     32 F          -3.9000    5.0978   27.6621 F       1  UNL1       -0.1328
     33 F          -3.4173    3.4240   26.4516 F       1  UNL1       -0.1328
     34 F          -5.7816    5.2544   26.6950 F       1  UNL1       -0.1328
@<TRIPOS>UNITY_ATOM_ATTR
20 1
charge -1
@<TRIPOS>BOND
     1    28    29    3
     2    29    22    1
     3    22    23   ar
     4    23    24   ar
     5    24    30    1
     6    30    31    1
     7    31    32    1
     8    31    33    1
     9    31    34    1
    10    24    25   ar
    11    25    26   ar
    12    26     1    1
    13     1     2   ar
    14     2     3   ar
    15     3     6    1
    16     6     7   ar
    17     7     8   ar
    18     8     9   ar
    19     9    10   ar
    20    10    11   ar
    21    10    12    1
    22    12    13    1
    23    13    14    1
    24    14    15   am
    25    15    16    2
    26    15    17    1
    27    17    18    1
    28    18    19    1
    29    19    20   ar
    30    19    21   ar
    31     3     4   ar
    32     4     5   ar
    33    26    27   ar
    34    27    22   ar
    35     5     1   ar
    36    11     6   ar
    37    14     9    1
@<TRIPOS>MOLECULE
*****
 34 37 0 0 0
SMALL
GASTEIGER

@<TRIPOS>ATOM
      1 C           3.0610   -0.4358   24.2416 C.ar    1  UNL1        0.2601
      2 N           1.7256    0.1673   23.9209 N.ar    1  UNL1       -0.1870
      3 C           1.3868    1.1467   25.0054 C.ar    1  UNL1        0.2036
      4 N           2.5128    1.1488   25.9963 N.ar    1  UNL1       -0.0556
      5 O           3.5476    0.1708   25.5243 O.2     1  UNL1       -0.3324
      6 C           0.1407    1.9780   25.0850 C.ar    1  UNL1        0.0389
      7 C          -0.6094    2.0830   26.3797 C.ar    1  UNL1        0.0044
      8 C          -1.8554    2.9143   26.4592 C.ar    1  UNL1        0.0147
      9 C          -2.3514    3.6405   25.2440 C.ar    1  UNL1        0.0499
     10 C          -1.6013    3.5354   23.9493 C.ar    1  UNL1       -0.0067
     11 C          -0.3553    2.7042   23.8698 C.ar    1  UNL1        0.0002
     12 C          -2.3261    4.3581   22.9257 C.3     1  UNL1        0.0495
     13 C          -3.5241    4.9717   23.5878 C.3     1  UNL1        0.1029
     14 N          -3.5397    4.5282   25.0206 N.am    1  UNL1       -0.2586
     15 C          -4.5639    4.9060   26.0494 C.2     1  UNL1        0.2297
     16 O          -4.4483    4.3824   27.4503 O.2     1  UNL1       -0.2745
     17 C          -5.7036    5.8074   25.6773 C.3     1  UNL1        0.0915
     18 C          -6.3310    6.6905   26.7147 C.3     1  UNL1        0.0513
     19 C          -7.7498    6.4557   27.1410 C.2     1  UNL1        0.0508
     20 O          -8.0977    6.4143   28.5996 O.co2   1  UNL1       -0.5492
     21 O          -8.8208    6.2622   26.1088 O.co2   1  UNL1       -0.5492
     22 C           5.5223   -3.3872   23.2511 C.ar    1  UNL1        0.0716
     23 C           5.2272   -3.5229   21.7866 C.ar    1  UNL1        0.0475
     24 C           4.2102   -2.6296   21.1405 C.ar    1  UNL1        0.1476
     25 C           3.4881   -1.6005   21.9588 C.ar    1  UNL1        0.0420
     26 C           3.7831   -1.4649   23.4233 C.ar    1  UNL1        0.0598
     27 C           4.8002   -2.3582   24.0693 C.ar    1  UNL1        0.0152
     28 N           7.5564   -5.1740   24.5433 N.1     1  UNL1       -0.1908
     29 C           6.5393   -4.2806   23.8972 C.1     1  UNL1        0.1005
     30 O           3.9153   -2.7653   19.6761 O.3     1  UNL1       -0.4044
     31 C           4.2923   -4.0216   18.9484 C.3     1  UNL1        0.5753
     32 F           4.6694   -5.2779   18.2206 F       1  UNL1       -0.1328
     33 F           5.5425   -3.3584   18.4512 F       1  UNL1       -0.1328
     34 F           3.0421   -4.6848   19.4454 F       1  UNL1       -0.1328
@<TRIPOS>UNITY_ATOM_ATTR
20 1
charge -1
@<TRIPOS>BOND
     1    28    29    3
     2    29    22    1
     3    22    23   ar
     4    23    24   ar
     5    24    30    1
     6    30    31    1
     7    31    32    1
     8    31    33    1
     9    31    34    1
    10    24    25   ar
    11    25    26   ar
    12    26     1    1
    13     1     2   ar
    14     2     3   ar
    15     3     6    1
    16     6     7   ar
    17     7     8   ar
    18     8     9   ar
    19     9    10   ar
    20    10    11   ar
    21    10    12    1
    22    12    13    1
    23    13    14    1
    24    14    15   am
    25    15    16    2
    26    15    17    1
    27    17    18    1
    28    18    19    1
    29    19    20   ar
    30    19    21   ar
    31     3     4   ar
    32     4     5   ar
    33    26    27   ar
    34    27    22   ar
    35     5     1   ar
    36    11     6   ar
    37    14     9    1
@<TRIPOS>MOLECULE
*****
 34 37 0 0 0
SMALL
GASTEIGER

@<TRIPOS>ATOM
      1 C           4.4617   -1.6271   23.6212 C.ar    1  UNL1        0.2601
      2 N           3.9597   -1.3631   25.0098 N.ar    1  UNL1       -0.1870
      3 C           5.0640   -1.6880   25.9715 C.ar    1  UNL1        0.2036
      4 N           6.2486   -2.1527   25.1772 N.ar    1  UNL1       -0.0556
      5 O           5.8763   -2.1152   23.7246 O.2     1  UNL1       -0.3324
      6 C           4.9958   -1.5689   27.4653 C.ar    1  UNL1        0.0389
      7 C           3.9455   -0.7078   28.1018 C.ar    1  UNL1        0.0044
      8 C           3.8773   -0.5888   29.5955 C.ar    1  UNL1        0.0147
      9 C           4.8595   -1.3309   30.4526 C.ar    1  UNL1        0.0499
     10 C           5.9099   -2.1920   29.8160 C.ar    1  UNL1       -0.0067
     11 C           5.9780   -2.3110   28.3224 C.ar    1  UNL1        0.0002
     12 C           6.7363   -2.8002   30.9101 C.3     1  UNL1        0.0495
     13 C           6.1967   -2.3150   32.2230 C.3     1  UNL1        0.1029
     14 N           5.0368   -1.4069   31.9402 N.am    1  UNL1       -0.2586
     15 C           4.2009   -0.6991   32.9651 C.2     1  UNL1        0.2297
     16 O           3.0672    0.1815   32.5300 O.2     1  UNL1       -0.2745
     17 C           4.4987   -0.8719   34.4250 C.3     1  UNL1        0.0915
     18 C           5.0043    0.2884   35.2299 C.3     1  UNL1        0.0513
     19 C           5.3403    0.1056   36.6803 C.2     1  UNL1        0.0508
     20 O           4.4322    0.6621   37.7365 O.co2   1  UNL1       -0.5492
     21 O           6.5845   -0.6338   37.0744 O.co2   1  UNL1       -0.5492
     22 C           1.7660   -0.2756   21.0412 C.ar    1  UNL1        0.0716
     23 C           2.1328   -1.0555   19.8134 C.ar    1  UNL1        0.0475
     24 C           3.2758   -2.0259   19.8549 C.ar    1  UNL1        0.1476
     25 C           4.0521   -2.2164   21.1242 C.ar    1  UNL1        0.0420
     26 C           3.6854   -1.4366   22.3519 C.ar    1  UNL1        0.0598
     27 C           2.5423   -0.4662   22.3103 C.ar    1  UNL1        0.0152
     28 N          -0.5202    1.6651   20.9580 N.1     1  UNL1       -0.1908
     29 C           0.6229    0.6947   20.9996 C.1     1  UNL1        0.1005
     30 O           3.6426   -2.8057   18.6272 O.3     1  UNL1       -0.4044
     31 C           4.1478   -4.2122   18.7552 C.3     1  UNL1        0.5753
     32 F           4.6532   -5.6188   18.8833 F       1  UNL1       -0.1328
     33 F           5.5211   -3.7547   18.3618 F       1  UNL1       -0.1328
     34 F           2.7746   -4.6698   19.1486 F       1  UNL1       -0.1328
@<TRIPOS>UNITY_ATOM_ATTR
20 1
charge -1
@<TRIPOS>BOND
     1    28    29    3
     2    29    22    1
     3    22    23   ar
     4    23    24   ar
     5    24    30    1
     6    30    31    1
     7    31    32    1
     8    31    33    1
     9    31    34    1
    10    24    25   ar
    11    25    26   ar
    12    26     1    1
    13     1     2   ar
    14     2     3   ar
    15     3     6    1
    16     6     7   ar
    17     7     8   ar
    18     8     9   ar
    19     9    10   ar
    20    10    11   ar
    21    10    12    1
    22    12    13    1
    23    13    14    1
    24    14    15   am
    25    15    16    2
    26    15    17    1
    27    17    18    1
    28    18    19    1
    29    19    20   ar
    30    19    21   ar
    31     3     4   ar
    32     4     5   ar
    33    26    27   ar
    34    27    22   ar
    35     5     1   ar
    36    11     6   ar
    37    14     9    1
@<TRIPOS>MOLECULE
*****
 34 37 0 0 0
SMALL
GASTEIGER

@<TRIPOS>ATOM
      1 C           4.9164    1.0650   35.0597 C.ar    1  UNL1        0.2601
      2 N           4.6258    0.1293   33.9239 N.ar    1  UNL1       -0.1870
      3 C           5.9288   -0.4435   33.4503 C.ar    1  UNL1        0.2036
      4 N           7.0246    0.1382   34.2935 N.ar    1  UNL1       -0.0556
      5 O           6.3989    1.0705   35.2881 O.2     1  UNL1       -0.3324
      6 C           6.1050   -1.4255   32.3302 C.ar    1  UNL1        0.0389
      7 C           5.9163   -0.9842   30.9091 C.ar    1  UNL1        0.0044
      8 C           6.0925   -1.9663   29.7892 C.ar    1  UNL1        0.0147
      9 C           6.4575   -3.3897   30.0903 C.ar    1  UNL1        0.0499
     10 C           6.6463   -3.8310   31.5114 C.ar    1  UNL1       -0.0067
     11 C           6.4700   -2.8490   32.6313 C.ar    1  UNL1        0.0002
     12 C           7.0018   -5.2882   31.5008 C.3     1  UNL1        0.0495
     13 C           7.0328   -5.7475   30.0732 C.3     1  UNL1        0.1029
     14 N           6.6964   -4.5742   29.2014 N.am    1  UNL1       -0.2586
     15 C           6.6134   -4.5836   27.7037 C.2     1  UNL1        0.2297
     16 O           6.2640   -3.3263   26.9640 O.2     1  UNL1       -0.2745
     17 C           6.8798   -5.8503   26.9458 C.3     1  UNL1        0.0915
     18 C           7.4018   -5.7881   25.5409 C.3     1  UNL1        0.0513
     19 C           7.8886   -7.0359   24.8657 C.2     1  UNL1        0.0508
     20 O           8.2339   -7.0130   23.4062 O.co2   1  UNL1       -0.5492
     21 O           8.0299   -8.3067   25.6499 O.co2   1  UNL1       -0.5492
     22 C           2.2447    3.8512   35.9813 C.ar    1  UNL1        0.0716
     23 C           1.8745    3.4388   37.3752 C.ar    1  UNL1        0.0475
     24 C           2.5183    2.2353   37.9973 C.ar    1  UNL1        0.1476
     25 C           3.5323    1.4441   37.2254 C.ar    1  UNL1        0.0420
     26 C           3.9024    1.8563   35.8315 C.ar    1  UNL1        0.0598
     27 C           3.2586    3.0599   35.2095 C.ar    1  UNL1        0.0152
     28 N           0.9570    6.2583   34.7372 N.1     1  UNL1       -0.1908
     29 C           1.6008    5.0547   35.3592 C.1     1  UNL1        0.1005
     30 O           2.1482    1.8231   39.3912 O.3     1  UNL1       -0.4044
     31 C           1.3683    0.5620   39.6182 C.3     1  UNL1        0.5753
     32 F           0.5885   -0.6992   39.8452 F       1  UNL1       -0.1328
     33 F           2.6258   -0.1402   40.0374 F       1  UNL1       -0.1328
     34 F           0.1109    1.2640   39.1991 F       1  UNL1       -0.1328
@<TRIPOS>UNITY_ATOM_ATTR
20 1
charge -1
@<TRIPOS>BOND
     1    28    29    3
     2    29    22    1
     3    22    23   ar
     4    23    24   ar
     5    24    30    1
     6    30    31    1
     7    31    32    1
     8    31    33    1
     9    31    34    1
    10    24    25   ar
    11    25    26   ar
    12    26     1    1
    13     1     2   ar
    14     2     3   ar
    15     3     6    1
    16     6     7   ar
    17     7     8   ar
    18     8     9   ar
    19     9    10   ar
    20    10    11   ar
    21    10    12    1
    22    12    13    1
    23    13    14    1
    24    14    15   am
    25    15    16    2
    26    15    17    1
    27    17    18    1
    28    18    19    1
    29    19    20   ar
    30    19    21   ar
    31     3     4   ar
    32     4     5   ar
    33    26    27   ar
    34    27    22   ar
    35     5     1   ar
    36    11     6   ar
    37    14     9    1
@<TRIPOS>MOLECULE
*****
 34 37 0 0 0
SMALL
GASTEIGER

@<TRIPOS>ATOM
      1 C           5.0328   -0.9305   34.6711 C.ar    1  UNL1        0.2601
      2 N           6.0676   -1.3551   33.6717 N.ar    1  UNL1       -0.1870
      3 C           5.4706   -2.4324   32.8155 C.ar    1  UNL1        0.2036
      4 N           4.0668   -2.6736   33.2859 N.ar    1  UNL1       -0.0556
      5 O           3.7962   -1.7454   34.4327 O.2     1  UNL1       -0.3324
      6 C           6.1569   -3.1436   31.6871 C.ar    1  UNL1        0.0389
      7 C           6.6280   -4.5563   31.8670 C.ar    1  UNL1        0.0044
      8 C           7.3142   -5.2675   30.7387 C.ar    1  UNL1        0.0147
      9 C           7.5294   -4.5660   29.4304 C.ar    1  UNL1        0.0499
     10 C           7.0583   -3.1533   29.2505 C.ar    1  UNL1       -0.0067
     11 C           6.3721   -2.4421   30.3788 C.ar    1  UNL1        0.0002
     12 C           7.4077   -2.7221   27.8569 C.3     1  UNL1        0.0495
     13 C           8.0947   -3.8683   27.1755 C.3     1  UNL1        0.1029
     14 N           8.1699   -5.0079   28.1480 N.am    1  UNL1       -0.2586
     15 C           8.7788   -6.3532   27.8844 C.2     1  UNL1        0.2297
     16 O           8.7806   -7.3993   28.9594 O.2     1  UNL1       -0.2745
     17 C           9.3858   -6.6524   26.5457 C.3     1  UNL1        0.0915
     18 C           8.6238   -7.4652   25.5414 C.3     1  UNL1        0.0513
     19 C           8.1746   -6.8385   24.2547 C.2     1  UNL1        0.0508
     20 O           8.5382   -7.4723   22.9447 O.co2   1  UNL1       -0.5492
     21 O           7.3619   -5.5779   24.2781 O.co2   1  UNL1       -0.5492
     22 C           6.4920    2.1745   36.6661 C.ar    1  UNL1        0.0716
     23 C           5.5477    2.2326   37.8301 C.ar    1  UNL1        0.0475
     24 C           4.4318    1.2365   37.9412 C.ar    1  UNL1        0.1476
     25 C           4.2602    0.1821   36.8881 C.ar    1  UNL1        0.0420
     26 C           5.2044    0.1239   35.7241 C.ar    1  UNL1        0.0598
     27 C           6.3203    1.1201   35.6132 C.ar    1  UNL1        0.0152
     28 N           8.7238    4.1669   36.4441 N.1     1  UNL1       -0.1908
     29 C           7.6079    3.1707   36.5551 C.1     1  UNL1        0.1005
     30 O           3.4875    1.2946   39.1052 O.3     1  UNL1       -0.4044
     31 C           2.0415    0.9434   38.9161 C.3     1  UNL1        0.5753
     32 F           0.5954    0.5922   38.7271 F       1  UNL1       -0.1328
     33 F           2.1845   -0.1768   39.9034 F       1  UNL1       -0.1328
     34 F           1.8984    2.0636   37.9289 F       1  UNL1       -0.1328
@<TRIPOS>UNITY_ATOM_ATTR
20 1
charge -1
@<TRIPOS>BOND
     1    28    29    3
     2    29    22    1
     3    22    23   ar
     4    23    24   ar
     5    24    30    1
     6    30    31    1
     7    31    32    1
     8    31    33    1
     9    31    34    1
    10    24    25   ar
    11    25    26   ar
    12    26     1    1
    13     1     2   ar
    14     2     3   ar
    15     3     6    1
    16     6     7   ar
    17     7     8   ar
    18     8     9   ar
    19     9    10   ar
    20    10    11   ar
    21    10    12    1
    22    12    13    1
    23    13    14    1
    24    14    15   am
    25    15    16    2
    26    15    17    1
    27    17    18    1
    28    18    19    1
    29    19    20   ar
    30    19    21   ar
    31     3     4   ar
    32     4     5   ar
    33    26    27   ar
    34    27    22   ar
    35     5     1   ar
    36    11     6   ar
    37    14     9    1
@<TRIPOS>MOLECULE
*****
 34 37 0 0 0
SMALL
GASTEIGER

@<TRIPOS>ATOM
      1 C           1.5777    1.7393   19.0421 C.ar    1  UNL1        0.2601
      2 N           0.4415    1.6569   20.0178 N.ar    1  UNL1       -0.1870
      3 C          -0.4278    2.8632   19.8200 C.ar    1  UNL1        0.2036
      4 N           0.1712    3.6912   18.7220 N.ar    1  UNL1       -0.0556
      5 O           1.4107    2.9967   18.2412 O.2     1  UNL1       -0.3324
      6 C          -1.6769    3.1851   20.5858 C.ar    1  UNL1        0.0389
      7 C          -2.9658    3.4179   19.8548 C.ar    1  UNL1        0.0044
      8 C          -4.2147    3.7397   20.6206 C.ar    1  UNL1        0.0147
      9 C          -4.1748    3.8288   22.1174 C.ar    1  UNL1        0.0499
     10 C          -2.8858    3.5960   22.8484 C.ar    1  UNL1       -0.0067
     11 C          -1.6369    3.2741   22.0826 C.ar    1  UNL1        0.0002
     12 C          -3.1514    3.7497   24.3167 C.3     1  UNL1        0.0495
     13 C          -4.6045    4.0775   24.4931 C.3     1  UNL1        0.1029
     14 N          -5.2370    4.1263   23.1339 N.am    1  UNL1       -0.2586
     15 C          -6.6786    4.4211   22.8423 C.2     1  UNL1        0.2297
     16 O          -7.1693    4.4353   21.4249 O.2     1  UNL1       -0.2745
     17 C          -7.6293    4.7015   23.9680 C.3     1  UNL1        0.0915
     18 C          -8.3772    6.0010   24.0121 C.3     1  UNL1        0.0513
     19 C          -9.2107    6.3465   25.2104 C.2     1  UNL1        0.0508
     20 O         -10.6907    6.5417   25.0634 O.co2   1  UNL1       -0.5492
     21 O          -8.5643    6.4967   26.5556 O.co2   1  UNL1       -0.5492
     22 C           5.0257    0.0964   17.9641 C.ar    1  UNL1        0.0716
     23 C           4.9036   -1.2588   18.5956 C.ar    1  UNL1        0.0475
     24 C           3.6730   -1.6146   19.3759 C.ar    1  UNL1        0.1476
     25 C           2.5643   -0.6152   19.5247 C.ar    1  UNL1        0.0420
     26 C           2.6864    0.7399   18.8932 C.ar    1  UNL1        0.0598
     27 C           3.9171    1.0957   18.1130 C.ar    1  UNL1        0.0152
     28 N           7.4871    0.8078   16.4036 N.1     1  UNL1       -0.1908
     29 C           6.2564    0.4521   17.1839 C.1     1  UNL1        0.1005
     30 O           3.5509   -2.9697   20.0073 O.3     1  UNL1       -0.4044
     31 C           4.0681   -4.1809   19.2894 C.3     1  UNL1        0.5753
     32 F           4.5853   -5.3922   18.5715 F       1  UNL1       -0.1328
     33 F           5.4137   -3.9810   19.9214 F       1  UNL1       -0.1328
     34 F           2.7226   -4.3809   18.6573 F       1  UNL1       -0.1328
@<TRIPOS>UNITY_ATOM_ATTR
20 1
charge -1
@<TRIPOS>BOND
     1    28    29    3
     2    29    22    1
     3    22    23   ar
     4    23    24   ar
     5    24    30    1
     6    30    31    1
     7    31    32    1
     8    31    33    1
     9    31    34    1
    10    24    25   ar
    11    25    26   ar
    12    26     1    1
    13     1     2   ar
    14     2     3   ar
    15     3     6    1
    16     6     7   ar
    17     7     8   ar
    18     8     9   ar
    19     9    10   ar
    20    10    11   ar
    21    10    12    1
    22    12    13    1
    23    13    14    1
    24    14    15   am
    25    15    16    2
    26    15    17    1
    27    17    18    1
    28    18    19    1
    29    19    20   ar
    30    19    21   ar
    31     3     4   ar
    32     4     5   ar
    33    26    27   ar
    34    27    22   ar
    35     5     1   ar
    36    11     6   ar
    37    14     9    1
@<TRIPOS>MOLECULE
*****
 34 37 0 0 0
SMALL
GASTEIGER

@<TRIPOS>ATOM
      1 C          -2.5254    3.5887   21.5899 C.ar    1  UNL1        0.2601
      2 N          -1.4847    2.5107   21.6589 N.ar    1  UNL1       -0.1870
      3 C          -0.7695    2.4717   20.3410 C.ar    1  UNL1        0.2036
      4 N          -1.3683    3.5256   19.4574 N.ar    1  UNL1       -0.0556
      5 O          -2.4535    4.2160   20.2292 O.2     1  UNL1       -0.3324
      6 C           0.3482    1.5420   19.9714 C.ar    1  UNL1        0.0389
      7 C           0.8101    1.4534   18.5471 C.ar    1  UNL1        0.0044
      8 C           1.9278    0.5237   18.1777 C.ar    1  UNL1        0.0147
      9 C           2.5835   -0.3173   19.2325 C.ar    1  UNL1        0.0499
     10 C           2.1215   -0.2287   20.6568 C.ar    1  UNL1       -0.0067
     11 C           1.0039    0.7009   21.0263 C.ar    1  UNL1        0.0002
     12 C           2.9525   -1.1737   21.4732 C.3     1  UNL1        0.0495
     13 C           3.9280   -1.8463   20.5535 C.3     1  UNL1        0.1029
     14 N           3.7000   -1.3171   19.1686 N.am    1  UNL1       -0.2586
     15 C           4.4557   -1.7172   17.9363 C.2     1  UNL1        0.2297
     16 O           4.1139   -1.0990   16.6130 O.2     1  UNL1       -0.2745
     17 C           5.5532   -2.7356   18.0272 C.3     1  UNL1        0.0915
     18 C           6.9819   -2.2912   18.1334 C.3     1  UNL1        0.0513
     19 C           7.3023   -0.8430   18.3565 C.2     1  UNL1        0.0508
     20 O           7.5991   -0.3450   19.7400 O.co2   1  UNL1       -0.5492
     21 O           7.3259    0.1074   17.1963 O.co2   1  UNL1       -0.5492
     22 C          -5.7488    4.9627   23.4532 C.ar    1  UNL1        0.0716
     23 C          -5.3649    4.7389   24.8859 C.ar    1  UNL1        0.0475
     24 C          -4.0346    4.1318   25.2200 C.ar    1  UNL1        0.1476
     25 C          -3.0881    3.7484   24.1213 C.ar    1  UNL1        0.0420
     26 C          -3.4719    3.9721   22.6886 C.ar    1  UNL1        0.0598
     27 C          -4.8023    4.5792   22.3546 C.ar    1  UNL1        0.0152
     28 N          -8.4095    6.1770   22.7852 N.1     1  UNL1       -0.1908
     29 C          -7.0791    5.5698   23.1192 C.1     1  UNL1        0.1005
     30 O          -3.6508    3.9080   26.6526 O.3     1  UNL1       -0.4044
     31 C          -2.2178    4.0431   27.0750 C.3     1  UNL1        0.5753
     32 F          -0.7848    4.1783   27.4975 F       1  UNL1       -0.1328
     33 F          -2.3493    5.5370   27.0432 F       1  UNL1       -0.1328
     34 F          -2.0863    2.5493   27.1069 F       1  UNL1       -0.1328
@<TRIPOS>UNITY_ATOM_ATTR
20 1
charge -1
@<TRIPOS>BOND
     1    28    29    3
     2    29    22    1
     3    22    23   ar
     4    23    24   ar
     5    24    30    1
     6    30    31    1
     7    31    32    1
     8    31    33    1
     9    31    34    1
    10    24    25   ar
    11    25    26   ar
    12    26     1    1
    13     1     2   ar
    14     2     3   ar
    15     3     6    1
    16     6     7   ar
    17     7     8   ar
    18     8     9   ar
    19     9    10   ar
    20    10    11   ar
    21    10    12    1
    22    12    13    1
    23    13    14    1
    24    14    15   am
    25    15    16    2
    26    15    17    1
    27    17    18    1
    28    18    19    1
    29    19    20   ar
    30    19    21   ar
    31     3     4   ar
    32     4     5   ar
    33    26    27   ar
    34    27    22   ar
    35     5     1   ar
    36    11     6   ar
    37    14     9    1
@<TRIPOS>MOLECULE
*****
 34 37 0 0 0
SMALL
GASTEIGER

@<TRIPOS>ATOM
      1 C          -2.3576    3.4051   20.2986 C.ar    1  UNL1        0.2601
      2 N          -1.6074    2.1206   20.4910 N.ar    1  UNL1       -0.1870
      3 C          -0.2689    2.2618   19.8289 C.ar    1  UNL1        0.2036
      4 N          -0.1918    3.6337   19.2273 N.ar    1  UNL1       -0.0556
      5 O          -1.4827    4.3404   19.5175 O.2     1  UNL1       -0.3324
      6 C           0.8043    1.2150   19.7775 C.ar    1  UNL1        0.0389
      7 C           1.0988    0.3827   20.9901 C.ar    1  UNL1        0.0044
      8 C           2.1719   -0.6641   20.9386 C.ar    1  UNL1        0.0147
      9 C           2.9504   -0.8786   19.6745 C.ar    1  UNL1        0.0499
     10 C           2.6559   -0.0462   18.4619 C.ar    1  UNL1       -0.0067
     11 C           1.5828    1.0005   18.5134 C.ar    1  UNL1        0.0002
     12 C           3.5816   -0.4816   17.3649 C.3     1  UNL1        0.0495
     13 C           4.4483   -1.5830   17.8994 C.3     1  UNL1        0.1029
     14 N           4.0582   -1.8284   19.3269 N.am    1  UNL1       -0.2586
     15 C           4.6687   -2.8450   20.2455 C.2     1  UNL1        0.2297
     16 O           4.1723   -2.9763   21.6548 O.2     1  UNL1       -0.2745
     17 C           5.7756   -3.7303   19.7547 C.3     1  UNL1        0.0915
     18 C           7.1858   -3.4873   20.2044 C.3     1  UNL1        0.0513
     19 C           7.7514   -4.2676   21.3539 C.2     1  UNL1        0.0508
     20 O           8.3065   -5.6424   21.1262 O.co2   1  UNL1       -0.5492
     21 O           7.7620   -3.6731   22.7310 O.co2   1  UNL1       -0.5492
     22 C          -6.1970    4.4089   20.3367 C.ar    1  UNL1        0.0716
     23 C          -6.5047    4.2967   21.8006 C.ar    1  UNL1        0.0475
     24 C          -5.4302    3.8874   22.7637 C.ar    1  UNL1        0.1476
     25 C          -4.0478    3.5902   22.2630 C.ar    1  UNL1        0.0420
     26 C          -3.7400    3.7023   20.7992 C.ar    1  UNL1        0.0598
     27 C          -4.8147    4.1117   19.8361 C.ar    1  UNL1        0.0152
     28 N          -8.3463    5.2275   18.4105 N.1     1  UNL1       -0.1908
     29 C          -7.2716    4.8182   19.3736 C.1     1  UNL1        0.1005
     30 O          -5.7379    3.7753   24.2275 O.3     1  UNL1       -0.4044
     31 C          -5.7465    5.0037   25.0883 C.3     1  UNL1        0.5753
     32 F          -5.7550    6.2322   25.9491 F       1  UNL1       -0.1328
     33 F          -4.2615    4.8893   25.2663 F       1  UNL1       -0.1328
     34 F          -7.2314    5.1182   24.9103 F       1  UNL1       -0.1328
@<TRIPOS>UNITY_ATOM_ATTR
20 1
charge -1
@<TRIPOS>BOND
     1    28    29    3
     2    29    22    1
     3    22    23   ar
     4    23    24   ar
     5    24    30    1
     6    30    31    1
     7    31    32    1
     8    31    33    1
     9    31    34    1
    10    24    25   ar
    11    25    26   ar
    12    26     1    1
    13     1     2   ar
    14     2     3   ar
    15     3     6    1
    16     6     7   ar
    17     7     8   ar
    18     8     9   ar
    19     9    10   ar
    20    10    11   ar
    21    10    12    1
    22    12    13    1
    23    13    14    1
    24    14    15   am
    25    15    16    2
    26    15    17    1
    27    17    18    1
    28    18    19    1
    29    19    20   ar
    30    19    21   ar
    31     3     4   ar
    32     4     5   ar
    33    26    27   ar
    34    27    22   ar
    35     5     1   ar
    36    11     6   ar
    37    14     9    1
@<TRIPOS>MOLECULE
*****
 34 37 0 0 0
SMALL
GASTEIGER

@<TRIPOS>ATOM
      1 C           2.8551   -0.4355   24.0014 C.ar    1  UNL1        0.2601
      2 N           1.6529    0.2993   23.4869 N.ar    1  UNL1       -0.1870
      3 C           1.1639    1.2077   24.5758 C.ar    1  UNL1        0.2036
      4 N           2.0638    1.0343   25.7632 N.ar    1  UNL1       -0.0556
      5 O           3.1091    0.0187   25.4083 O.2     1  UNL1       -0.3324
      6 C          -0.0177    2.1280   24.4919 C.ar    1  UNL1        0.0389
      7 C          -0.3170    2.8496   23.2114 C.ar    1  UNL1        0.0044
      8 C          -1.4985    3.7699   23.1276 C.ar    1  UNL1        0.0147
      9 C          -2.3808    3.9685   24.3243 C.ar    1  UNL1        0.0499
     10 C          -2.0815    3.2470   25.6048 C.ar    1  UNL1       -0.0067
     11 C          -0.9000    2.3267   25.6886 C.ar    1  UNL1        0.0002
     12 C          -3.1223    3.6384   26.6116 C.3     1  UNL1        0.0495
     13 C          -4.0648    4.6019   25.9533 C.3     1  UNL1        0.1029
     14 N          -3.6066    4.8060   24.5397 N.am    1  UNL1       -0.2586
     15 C          -4.2594    5.6919   23.5204 C.2     1  UNL1        0.2297
     16 O          -3.6844    5.7959   22.1388 O.2     1  UNL1       -0.2745
     17 C          -5.4871    6.4738   23.8826 C.3     1  UNL1        0.0915
     18 C          -6.7492    6.2974   23.0916 C.3     1  UNL1        0.0513
     19 C          -7.2641    4.9194   22.7981 C.2     1  UNL1        0.0508
     20 O          -8.4395    4.3803   23.5582 O.co2   1  UNL1       -0.5492
     21 O          -6.6035    4.0806   21.7446 O.co2   1  UNL1       -0.5492
     22 C           5.4774   -3.3049   23.2014 C.ar    1  UNL1        0.0716
     23 C           5.2750   -3.4701   21.7242 C.ar    1  UNL1        0.0475
     24 C           4.2660   -2.6238   21.0062 C.ar    1  UNL1        0.1476
     25 C           3.4594   -1.6122   21.7653 C.ar    1  UNL1        0.0420
     26 C           3.6617   -1.4471   23.2423 C.ar    1  UNL1        0.0598
     27 C           4.6708   -2.2934   23.9603 C.ar    1  UNL1        0.0152
     28 N           7.4954   -4.9977   24.6373 N.1     1  UNL1       -0.1908
     29 C           6.4864   -4.1513   23.9194 C.1     1  UNL1        0.1005
     30 O           4.0636   -2.7889   19.5291 O.3     1  UNL1       -0.4044
     31 C           4.3714   -4.1018   18.8722 C.3     1  UNL1        0.5753
     32 F           4.6791   -5.4148   18.2152 F       1  UNL1       -0.1328
     33 F           3.1291   -4.6924   19.4704 F       1  UNL1       -0.1328
     34 F           5.6136   -3.5113   18.2739 F       1  UNL1       -0.1328
@<TRIPOS>UNITY_ATOM_ATTR
20 1
charge -1
@<TRIPOS>BOND
     1    28    29    3
     2    29    22    1
     3    22    23   ar
     4    23    24   ar
     5    24    30    1
     6    30    31    1
     7    31    32    1
     8    31    33    1
     9    31    34    1
    10    24    25   ar
    11    25    26   ar
    12    26     1    1
    13     1     2   ar
    14     2     3   ar
    15     3     6    1
    16     6     7   ar
    17     7     8   ar
    18     8     9   ar
    19     9    10   ar
    20    10    11   ar
    21    10    12    1
    22    12    13    1
    23    13    14    1
    24    14    15   am
    25    15    16    2
    26    15    17    1
    27    17    18    1
    28    18    19    1
    29    19    20   ar
    30    19    21   ar
    31     3     4   ar
    32     4     5   ar
    33    26    27   ar
    34    27    22   ar
    35     5     1   ar
    36    11     6   ar
    37    14     9    1
