@<TRIPOS>MOLECULE
*****
 37 42 0 0 0
SMALL
GASTEIGER

@<TRIPOS>ATOM
      1 C          -2.6431    3.9559   21.8468 C.2     1  UNL1        0.4243
      2 N          -2.5003    4.0106   20.3547 N.2     1  UNL1        0.0275
      3 C          -1.2785    3.4410   19.6968 C.2     1  UNL1        0.3991
      4 N          -0.8626    3.3511   18.2585 N.2     1  UNL1        0.0826
      5 N           0.4733    2.6713   18.2038 N.2     1  UNL1       -0.0375
      6 C           0.8831    2.3409   19.6084 C.2     1  UNL1        0.1283
      7 C          -0.1996    2.8166   20.5311 C.3     1  UNL1        0.2504
      8 C          -0.3425    2.7619   22.0233 C.2     1  UNL1        0.3055
      9 O           0.7365    2.1376   22.8577 O.2     1  UNL1       -0.2554
     10 N          -1.5642    3.3316   22.6812 N.am    1  UNL1       -0.1358
     11 C          -1.7071    3.2769   24.1734 C.3     1  UNL1        0.2167
     12 C         -10.0521    5.7281   24.8432 C.3     1  UNL1        0.0335
     13 C          -8.5908    5.9558   24.5930 C.3     1  UNL1        0.1294
     14 O          -7.7862    7.1274   25.0728 O.3     1  UNL1       -0.3548
     15 C          -6.3756    6.9476   24.5953 C.3     1  UNL1        0.1435
     16 C          -6.3084    5.6650   23.8205 C.3     1  UNL1        0.0490
     17 C          -5.0007    6.3947   23.9070 C.3     1  UNL1        0.0444
     18 C          -3.7790    5.8250   23.2492 C.3     1  UNL1        0.1682
     19 N          -3.8649    4.5256   22.5047 N.pl3   1  UNL1       -0.1900
     20 C          -5.1726    3.7959   22.4182 C.3     1  UNL1        0.1682
     21 C          -6.3943    4.3656   23.0760 C.3     1  UNL1        0.0444
     22 C          -7.6775    5.0520   23.8191 C.3     1  UNL1        0.0808
     23 N          -8.0651    3.7618   23.1595 N.3     1  UNL1       -0.3202
     24 H          -7.2486    3.3542   22.7039 H       1  UNL1        0.1189
     25 H          -8.7893    3.9399   22.4635 H       1  UNL1        0.1189
     26 C           2.1527    1.6552   20.0183 C.ar    1  UNL1        0.0333
     27 C           3.4223    2.4434   20.1486 C.ar    1  UNL1        0.0229
     28 C           4.6919    1.7578   20.5585 C.ar    1  UNL1        0.1004
     29 N           4.6920    0.2841   20.8380 N.ar    1  UNL1       -0.2285
     30 C           3.4224   -0.5041   20.7076 C.ar    1  UNL1        0.1391
     31 C           2.1528    0.1815   20.2978 C.ar    1  UNL1        0.0902
     32 CL          0.8832   -0.6066   20.1674 Cl      1  UNL1       -0.0793
     33 N           3.4224   -1.9778   20.9871 N.pl3   1  UNL1       -0.3191
     34 H           3.2090   -2.3076   21.8898 H       1  UNL1        0.1482
     35 C           3.7475   -2.9490   19.8911 C.3     1  UNL1        0.0705
     36 C           4.6138   -3.3663   18.7399 C.3     1  UNL1        0.0212
     37 C           3.4442   -4.2139   19.1442 C.3     1  UNL1        0.0212
@<TRIPOS>BOND
     1    13    12    1
     2    13    14    1
     3    14    15    1
     4    15    16    1
     5    16    17    1
     6    17    18    1
     7    18    19    1
     8    19     1    1
     9     1     2    2
    10     2     3    1
    11     3     4    2
    12     4     5    1
    13     5     6    2
    14     6    26    1
    15    26    27   ar
    16    27    28   ar
    17    28    29   ar
    18    29    30   ar
    19    30    33    1
    20    33    35    1
    21    35    36    1
    22    36    37    1
    23    30    31   ar
    24    31    32    1
    25     6     7    1
    26     7     8    1
    27     8     9    2
    28     8    10   am
    29    10    11    1
    30    19    20    1
    31    20    21    1
    32    16    22    1
    33    22    23    1
    34    22    13    1
    35    21    16    1
    36    10     1    1
    37     7     3    1
    38    31    26   ar
    39    37    35    1
    40    33    34    1
    41    23    24    1
    42    23    25    1
@<TRIPOS>MOLECULE
*****
 37 42 0 0 0
SMALL
GASTEIGER

@<TRIPOS>ATOM
      1 C           6.5492   -1.3121   31.2372 C.2     1  UNL1        0.4243
      2 N           7.7868   -0.6093   31.7109 N.2     1  UNL1        0.0275
      3 C           7.7127    0.3417   32.8685 C.2     1  UNL1        0.3991
      4 N           8.7569    1.1731   33.5529 N.2     1  UNL1        0.0826
      5 N           8.0906    1.9351   34.6598 N.2     1  UNL1       -0.0375
      6 C           6.6345    1.5747   34.6595 C.2     1  UNL1        0.1283
      7 C           6.4010    0.5899   33.5525 C.3     1  UNL1        0.2504
      8 C           5.1633   -0.1129   33.0788 C.2     1  UNL1        0.3055
      9 O           3.8516    0.1353   33.7628 O.2     1  UNL1       -0.2554
     10 N           5.2375   -1.0639   31.9212 N.am    1  UNL1       -0.1358
     11 C           3.9998   -1.7667   31.4475 C.3     1  UNL1        0.2167
     12 C           7.2414   -7.6283   26.0761 C.3     1  UNL1        0.0335
     13 C           7.0215   -6.1941   26.4562 C.3     1  UNL1        0.1294
     14 O           6.7492   -5.0629   25.5094 O.3     1  UNL1       -0.3548
     15 C           6.5946   -3.8088   26.3179 C.3     1  UNL1        0.1435
     16 C           6.7713   -4.1650   27.7643 C.3     1  UNL1        0.0490
     17 C           6.4985   -2.7099   27.5232 C.3     1  UNL1        0.0444
     18 C           6.4244   -1.7590   28.6809 C.3     1  UNL1        0.1682
     19 N           6.6232   -2.2631   30.0796 N.pl3   1  UNL1       -0.1900
     20 C           6.8961   -3.7182   30.3206 C.3     1  UNL1        0.1682
     21 C           6.9701   -4.6692   29.1630 C.3     1  UNL1        0.0444
     22 C           7.0352   -5.6392   27.8497 C.3     1  UNL1        0.0808
     23 N           7.2713   -6.4211   29.1078 N.3     1  UNL1       -0.3202
     24 H           7.2257   -5.7944   29.9112 H       1  UNL1        0.1189
     25 H           8.1923   -6.8577   29.0690 H       1  UNL1        0.1189
     26 C           5.5946    2.1058   35.6011 C.ar    1  UNL1        0.0333
     27 C           5.0476    3.4896   35.4112 C.ar    1  UNL1        0.0229
     28 C           4.0078    4.0208   36.3527 C.ar    1  UNL1        0.1004
     29 N           3.5148    3.1683   37.4841 N.ar    1  UNL1       -0.2285
     30 C           4.0618    1.7845   37.6741 C.ar    1  UNL1        0.1391
     31 C           5.1017    1.2533   36.7326 C.ar    1  UNL1        0.0902
     32 CL          5.6486   -0.1304   36.9225 Cl      1  UNL1       -0.0793
     33 N           3.5689    0.9320   38.8055 N.pl3   1  UNL1       -0.3191
     34 H           4.2055    0.3958   39.3314 H       1  UNL1        0.1482
     35 C           2.1061    0.8962   39.1357 C.3     1  UNL1        0.0705
     36 C           0.8085    1.6125   39.3660 C.3     1  UNL1        0.0212
     37 C           0.8702    0.1179   39.4773 C.3     1  UNL1        0.0212
@<TRIPOS>BOND
     1    13    12    1
     2    13    14    1
     3    14    15    1
     4    15    16    1
     5    16    17    1
     6    17    18    1
     7    18    19    1
     8    19     1    1
     9     1     2    2
    10     2     3    1
    11     3     4    2
    12     4     5    1
    13     5     6    2
    14     6    26    1
    15    26    27   ar
    16    27    28   ar
    17    28    29   ar
    18    29    30   ar
    19    30    33    1
    20    33    35    1
    21    35    36    1
    22    36    37    1
    23    30    31   ar
    24    31    32    1
    25     6     7    1
    26     7     8    1
    27     8     9    2
    28     8    10   am
    29    10    11    1
    30    19    20    1
    31    20    21    1
    32    16    22    1
    33    22    23    1
    34    22    13    1
    35    21    16    1
    36    10     1    1
    37     7     3    1
    38    31    26   ar
    39    37    35    1
    40    33    34    1
    41    23    24    1
    42    23    25    1
@<TRIPOS>MOLECULE
*****
 37 42 0 0 0
SMALL
GASTEIGER

@<TRIPOS>ATOM
      1 C           6.0845   -0.2589   33.9621 C.2     1  UNL1        0.4243
      2 N           7.4193   -0.9371   34.0531 N.2     1  UNL1        0.0275
      3 C           7.9517   -1.7054   32.8799 C.2     1  UNL1        0.3991
      4 N           9.2249   -2.4718   32.6763 N.2     1  UNL1        0.0826
      5 N           9.2094   -3.0356   31.2864 N.2     1  UNL1       -0.0375
      6 C           7.9265   -2.6176   30.6310 C.2     1  UNL1        0.1283
      7 C           7.1493   -1.7955   31.6158 C.3     1  UNL1        0.2504
      8 C           5.8144   -1.1173   31.5249 C.2     1  UNL1        0.3055
      9 O           5.0120   -1.2073   30.2608 O.2     1  UNL1       -0.2554
     10 N           5.2821   -0.3490   32.6980 N.am    1  UNL1       -0.1358
     11 C           3.9472    0.3293   32.6071 C.3     1  UNL1        0.2167
     12 C           3.9980    5.1912   39.7027 C.3     1  UNL1        0.0335
     13 C           4.0177    3.8449   39.0417 C.3     1  UNL1        0.1294
     14 O           3.3183    2.6118   39.5320 O.3     1  UNL1       -0.3548
     15 C           3.6085    1.5000   38.5677 C.3     1  UNL1        0.1435
     16 C           4.4873    2.0460   37.4815 C.3     1  UNL1        0.0490
     17 C           4.1478    0.5940   37.3195 C.3     1  UNL1        0.0444
     18 C           4.6802   -0.1743   36.1464 C.3     1  UNL1        0.1682
     19 N           5.5521    0.5095   35.1353 N.pl3   1  UNL1       -0.1900
     20 C           5.8916    1.9615   35.2973 C.3     1  UNL1        0.1682
     21 C           5.3592    2.7298   36.4704 C.3     1  UNL1        0.0444
     22 C           4.7401    3.4953   37.7746 C.3     1  UNL1        0.0808
     23 N           5.5698    4.4306   36.9458 N.3     1  UNL1       -0.3202
     24 H           5.9439    3.9298   36.1398 H       1  UNL1        0.1189
     25 H           6.3397    4.7919   37.5089 H       1  UNL1        0.1189
     26 C           7.4966   -2.9614   29.2357 C.ar    1  UNL1        0.0333
     27 C           7.5627   -1.9246   28.1537 C.ar    1  UNL1        0.0229
     28 C           7.1327   -2.2683   26.7583 C.ar    1  UNL1        0.1004
     29 N           6.6366   -3.6488   26.4449 N.ar    1  UNL1       -0.2285
     30 C           6.5705   -4.6856   27.5270 C.ar    1  UNL1        0.1391
     31 C           7.0005   -4.3418   28.9223 C.ar    1  UNL1        0.0902
     32 CL          6.9344   -5.3786   30.0043 Cl      1  UNL1       -0.0793
     33 N           6.0745   -6.0660   27.2137 N.pl3   1  UNL1       -0.3191
     34 H           5.1333   -6.3009   27.3821 H       1  UNL1        0.1482
     35 C           7.0123   -7.0887   26.6439 C.3     1  UNL1        0.0705
     36 C           7.7211   -7.6875   25.4653 C.3     1  UNL1        0.0212
     37 C           7.9280   -8.2612   26.8358 C.3     1  UNL1        0.0212
@<TRIPOS>BOND
     1    13    12    1
     2    13    14    1
     3    14    15    1
     4    15    16    1
     5    16    17    1
     6    17    18    1
     7    18    19    1
     8    19     1    1
     9     1     2    2
    10     2     3    1
    11     3     4    2
    12     4     5    1
    13     5     6    2
    14     6    26    1
    15    26    27   ar
    16    27    28   ar
    17    28    29   ar
    18    29    30   ar
    19    30    33    1
    20    33    35    1
    21    35    36    1
    22    36    37    1
    23    30    31   ar
    24    31    32    1
    25     6     7    1
    26     7     8    1
    27     8     9    2
    28     8    10   am
    29    10    11    1
    30    19    20    1
    31    20    21    1
    32    16    22    1
    33    22    23    1
    34    22    13    1
    35    21    16    1
    36    10     1    1
    37     7     3    1
    38    31    26   ar
    39    37    35    1
    40    33    34    1
    41    23    24    1
    42    23    25    1
@<TRIPOS>MOLECULE
*****
 37 42 0 0 0
SMALL
GASTEIGER

@<TRIPOS>ATOM
      1 C           7.0744   -2.9909   28.9151 C.2     1  UNL1        0.4243
      2 N           6.9894   -4.4745   28.7115 N.2     1  UNL1        0.0275
      3 C           7.1315   -5.0520   27.3344 C.2     1  UNL1        0.3991
      4 N           7.0926   -6.4637   26.8292 N.2     1  UNL1        0.0826
      5 N           7.2957   -6.4301   25.3434 N.2     1  UNL1       -0.0375
      6 C           7.4600   -4.9974   24.9304 C.2     1  UNL1        0.1283
      7 C           7.3585   -4.1458   26.1609 C.3     1  UNL1        0.2504
      8 C           7.4435   -2.6620   26.3645 C.2     1  UNL1        0.3055
      9 O           7.6706   -1.7558   25.1909 O.2     1  UNL1       -0.2554
     10 N           7.3015   -2.0846   27.7415 N.am    1  UNL1       -0.1358
     11 C           7.3865   -0.6009   27.9451 C.3     1  UNL1        0.2167
     12 C           4.7128   -0.2095   36.2429 C.3     1  UNL1        0.0335
     13 C           5.6934   -0.5108   35.1487 C.3     1  UNL1        0.1294
     14 O           7.1663   -0.2286   35.1823 O.3     1  UNL1       -0.3548
     15 C           7.7565   -0.6907   33.8829 C.3     1  UNL1        0.1435
     16 C           6.6484   -1.2584   33.0463 C.3     1  UNL1        0.0490
     17 C           7.9949   -1.3028   32.3868 C.3     1  UNL1        0.0444
     18 C           8.1369   -1.8802   31.0098 C.3     1  UNL1        0.1682
     19 N           6.9324   -2.4133   30.2922 N.pl3   1  UNL1       -0.1900
     20 C           5.5859   -2.3690   30.9516 C.3     1  UNL1        0.1682
     21 C           5.4439   -1.7915   32.3287 C.3     1  UNL1        0.0444
     22 C           5.3733   -1.1472   33.8286 C.3     1  UNL1        0.0808
     23 N           4.0165   -1.5940   33.3711 N.3     1  UNL1       -0.3202
     24 H           4.0874   -1.9915   32.4344 H       1  UNL1        0.1189
     25 H           3.3831   -0.7947   33.3543 H       1  UNL1        0.1189
     26 C           7.6861   -4.5033   23.5322 C.ar    1  UNL1        0.0333
     27 C           9.0508   -4.5941   22.9163 C.ar    1  UNL1        0.0229
     28 C           9.2771   -4.1000   21.5182 C.ar    1  UNL1        0.1004
     29 N           8.1386   -3.5152   20.7360 N.ar    1  UNL1       -0.2285
     30 C           6.7739   -3.4245   21.3519 C.ar    1  UNL1        0.1391
     31 C           6.5477   -3.9186   22.7500 C.ar    1  UNL1        0.0902
     32 CL          5.1830   -3.8279   23.3659 Cl      1  UNL1       -0.0793
     33 N           5.6354   -2.8397   20.5698 N.pl3   1  UNL1       -0.3191
     34 H           5.4605   -1.8715   20.6041 H       1  UNL1        0.1482
     35 C           4.7631   -3.7302   19.7353 C.3     1  UNL1        0.0705
     36 C           3.4154   -4.0696   19.1710 C.3     1  UNL1        0.0212
     37 C           4.6003   -4.9332   18.8543 C.3     1  UNL1        0.0212
@<TRIPOS>BOND
     1    13    12    1
     2    13    14    1
     3    14    15    1
     4    15    16    1
     5    16    17    1
     6    17    18    1
     7    18    19    1
     8    19     1    1
     9     1     2    2
    10     2     3    1
    11     3     4    2
    12     4     5    1
    13     5     6    2
    14     6    26    1
    15    26    27   ar
    16    27    28   ar
    17    28    29   ar
    18    29    30   ar
    19    30    33    1
    20    33    35    1
    21    35    36    1
    22    36    37    1
    23    30    31   ar
    24    31    32    1
    25     6     7    1
    26     7     8    1
    27     8     9    2
    28     8    10   am
    29    10    11    1
    30    19    20    1
    31    20    21    1
    32    16    22    1
    33    22    23    1
    34    22    13    1
    35    21    16    1
    36    10     1    1
    37     7     3    1
    38    31    26   ar
    39    37    35    1
    40    33    34    1
    41    23    24    1
    42    23    25    1
@<TRIPOS>MOLECULE
*****
 37 42 0 0 0
SMALL
GASTEIGER

@<TRIPOS>ATOM
      1 C           0.9893    2.7342   31.5209 C.2     1  UNL1        0.4243
      2 N           0.2057    1.4693   31.3311 N.2     1  UNL1        0.0275
      3 C          -0.2167    1.0481   29.9547 C.2     1  UNL1        0.3991
      4 N          -0.9905   -0.1383   29.4614 N.2     1  UNL1        0.0826
      5 N          -1.1075   -0.0279   27.9701 N.2     1  UNL1       -0.0375
      6 C          -0.4060    1.2268   27.5417 C.2     1  UNL1        0.1283
      7 C           0.1445    1.8918   28.7683 C.3     1  UNL1        0.2504
      8 C           0.9281    3.1568   28.9582 C.2     1  UNL1        0.3055
      9 O           1.2893    4.0005   27.7717 O.2     1  UNL1       -0.2554
     10 N           1.3505    3.5779   30.3344 N.am    1  UNL1       -0.1358
     11 C           2.1341    4.8428   30.5243 C.3     1  UNL1        0.2167
     12 C           4.1291    3.6212   39.0286 C.3     1  UNL1        0.0335
     13 C           3.3114    4.0183   37.8355 C.3     1  UNL1        0.1294
     14 O           2.5016    5.2736   37.6999 O.3     1  UNL1       -0.3548
     15 C           1.8496    5.2609   36.3490 C.3     1  UNL1        0.1435
     16 C           2.2565    3.9978   35.6497 C.3     1  UNL1        0.0490
     17 C           1.3440    4.8743   34.8442 C.3     1  UNL1        0.0444
     18 C           0.9216    4.4531   33.4679 C.3     1  UNL1        0.1682
     19 N           1.4117    3.1554   32.8972 N.pl3   1  UNL1       -0.1900
     20 C           2.3243    2.2788   33.7028 C.3     1  UNL1        0.1682
     21 C           2.7466    2.7001   35.0791 C.3     1  UNL1        0.0444
     22 C           3.1600    3.2298   36.5685 C.3     1  UNL1        0.0808
     23 N           3.7996    1.9058   36.2721 N.3     1  UNL1       -0.3202
     24 H           3.5266    1.5976   35.3389 H       1  UNL1        0.1189
     25 H           3.4930    1.2184   36.9605 H       1  UNL1        0.1189
     26 C          -0.2777    1.7284   26.1339 C.ar    1  UNL1        0.0333
     27 C           0.8494    1.2503   25.2672 C.ar    1  UNL1        0.0229
     28 C           0.9778    1.7518   23.8594 C.ar    1  UNL1        0.1004
     29 N          -0.0209    2.7314   23.3182 N.ar    1  UNL1       -0.2285
     30 C          -1.1480    3.2096   24.1848 C.ar    1  UNL1        0.1391
     31 C          -1.2764    2.7080   25.5927 C.ar    1  UNL1        0.0902
     32 CL         -2.4035    3.1862   26.4593 Cl      1  UNL1       -0.0793
     33 N          -2.1467    4.1892   23.6437 N.pl3   1  UNL1       -0.3191
     34 H          -1.9473    5.1532   23.6565 H       1  UNL1        0.1482
     35 C          -3.4493    3.7001   23.0832 C.3     1  UNL1        0.0705
     36 C          -4.8625    3.2421   23.2906 C.3     1  UNL1        0.0212
     37 C          -4.2920    3.3109   21.9050 C.3     1  UNL1        0.0212
@<TRIPOS>BOND
     1    13    12    1
     2    13    14    1
     3    14    15    1
     4    15    16    1
     5    16    17    1
     6    17    18    1
     7    18    19    1
     8    19     1    1
     9     1     2    2
    10     2     3    1
    11     3     4    2
    12     4     5    1
    13     5     6    2
    14     6    26    1
    15    26    27   ar
    16    27    28   ar
    17    28    29   ar
    18    29    30   ar
    19    30    33    1
    20    33    35    1
    21    35    36    1
    22    36    37    1
    23    30    31   ar
    24    31    32    1
    25     6     7    1
    26     7     8    1
    27     8     9    2
    28     8    10   am
    29    10    11    1
    30    19    20    1
    31    20    21    1
    32    16    22    1
    33    22    23    1
    34    22    13    1
    35    21    16    1
    36    10     1    1
    37     7     3    1
    38    31    26   ar
    39    37    35    1
    40    33    34    1
    41    23    24    1
    42    23    25    1
@<TRIPOS>MOLECULE
*****
 37 42 0 0 0
SMALL
GASTEIGER

@<TRIPOS>ATOM
      1 C           2.6313   -0.2101   20.0209 C.2     1  UNL1        0.4243
      2 N           2.4221   -1.5920   19.4764 N.2     1  UNL1        0.0275
      3 C           3.4421   -2.6616   19.7329 C.2     1  UNL1        0.3991
      4 N           3.5075   -4.1041   19.3273 N.2     1  UNL1        0.0826
      5 N           4.7771   -4.6832   19.8775 N.2     1  UNL1       -0.0375
      6 C           5.4963   -3.5985   20.6233 C.2     1  UNL1        0.1283
      7 C           4.6713   -2.3491   20.5339 C.3     1  UNL1        0.2504
      8 C           4.8804   -0.9671   21.0784 C.2     1  UNL1        0.3055
      9 O           6.1096   -0.6546   21.8793 O.2     1  UNL1       -0.2554
     10 N           3.8604    0.1024   20.8219 N.am    1  UNL1       -0.1358
     11 C           4.0695    1.4844   21.3664 C.3     1  UNL1        0.2167
     12 C          -3.4651    5.2520   20.1272 C.3     1  UNL1        0.0335
     13 C          -2.2933    4.5259   19.5361 C.3     1  UNL1        0.1294
     14 O          -1.7034    4.7626   18.1773 O.3     1  UNL1       -0.3548
     15 C          -0.5510    3.8185   18.0014 C.3     1  UNL1        0.1435
     16 C          -0.4287    2.9984   19.2514 C.3     1  UNL1        0.0490
     17 C           0.5921    2.6686   18.2030 C.3     1  UNL1        0.0444
     18 C           1.6121    1.5992   18.4595 C.3     1  UNL1        0.1682
     19 N           1.6112    0.8594   19.7644 N.pl3   1  UNL1       -0.1900
     20 C           0.5904    1.1892   20.8128 C.3     1  UNL1        0.1682
     21 C          -0.4295    2.2587   20.5563 C.3     1  UNL1        0.0444
     22 C          -1.5055    3.4356   20.1999 C.3     1  UNL1        0.0808
     23 N          -1.7512    2.8800   21.5713 N.3     1  UNL1       -0.3202
     24 H          -1.0681    2.1489   21.7693 H       1  UNL1        0.1189
     25 H          -2.6917    2.4877   21.6157 H       1  UNL1        0.1189
     26 C           6.8100   -3.7388   21.3336 C.ar    1  UNL1        0.0333
     27 C           8.0906   -3.7202   20.5527 C.ar    1  UNL1        0.0229
     28 C           9.4043   -3.8605   21.2630 C.ar    1  UNL1        0.1004
     29 N           9.4374   -4.0192   22.7542 N.ar    1  UNL1       -0.2285
     30 C           8.1569   -4.0378   23.5351 C.ar    1  UNL1        0.1391
     31 C           6.8432   -3.8975   22.8248 C.ar    1  UNL1        0.0902
     32 CL          5.5626   -3.9161   23.6057 Cl      1  UNL1       -0.0793
     33 N           8.1899   -4.1966   25.0263 N.pl3   1  UNL1       -0.3191
     34 H           8.5353   -3.4681   25.5913 H       1  UNL1        0.1482
     35 C           7.6968   -5.4653   25.6566 C.3     1  UNL1        0.0705
     36 C           6.8019   -6.1677   26.6342 C.3     1  UNL1        0.0212
     37 C           7.7377   -6.9604   25.7705 C.3     1  UNL1        0.0212
@<TRIPOS>BOND
     1    13    12    1
     2    13    14    1
     3    14    15    1
     4    15    16    1
     5    16    17    1
     6    17    18    1
     7    18    19    1
     8    19     1    1
     9     1     2    2
    10     2     3    1
    11     3     4    2
    12     4     5    1
    13     5     6    2
    14     6    26    1
    15    26    27   ar
    16    27    28   ar
    17    28    29   ar
    18    29    30   ar
    19    30    33    1
    20    33    35    1
    21    35    36    1
    22    36    37    1
    23    30    31   ar
    24    31    32    1
    25     6     7    1
    26     7     8    1
    27     8     9    2
    28     8    10   am
    29    10    11    1
    30    19    20    1
    31    20    21    1
    32    16    22    1
    33    22    23    1
    34    22    13    1
    35    21    16    1
    36    10     1    1
    37     7     3    1
    38    31    26   ar
    39    37    35    1
    40    33    34    1
    41    23    24    1
    42    23    25    1
@<TRIPOS>MOLECULE
*****
 37 42 0 0 0
SMALL
GASTEIGER

@<TRIPOS>ATOM
      1 C           3.9173    1.0875   29.0738 C.2     1  UNL1        0.4243
      2 N           5.0978    1.9313   29.4536 N.2     1  UNL1        0.0275
      3 C           5.1562    2.5733   30.8080 C.2     1  UNL1        0.3991
      4 N           6.1833    3.4515   31.4590 N.2     1  UNL1        0.0826
      5 N           5.6959    3.7925   32.8360 N.2     1  UNL1       -0.0375
      6 C           4.3675    3.1250   33.0360 C.2     1  UNL1        0.1283
      7 C           4.0340    2.3716   31.7826 C.3     1  UNL1        0.2504
      8 C           2.8534    1.5277   31.4028 C.2     1  UNL1        0.3055
      9 O           1.7312    1.3260   32.3775 O.2     1  UNL1       -0.2554
     10 N           2.7950    0.8857   30.0485 N.am    1  UNL1       -0.1358
     11 C           1.6144    0.0419   29.6687 C.3     1  UNL1        0.2167
     12 C           4.6875   -3.4664   22.3152 C.3     1  UNL1        0.0335
     13 C           4.1497   -2.3416   23.1491 C.3     1  UNL1        0.1294
     14 O           3.1544   -1.3115   22.7037 O.3     1  UNL1       -0.3548
     15 C           2.9024   -0.3826   23.8542 C.3     1  UNL1        0.1435
     16 C           3.7420   -0.8386   25.0106 C.3     1  UNL1        0.0490
     17 C           2.9092    0.3745   25.3021 C.3     1  UNL1        0.0444
     18 C           2.9677    1.0165   26.6565 C.3     1  UNL1        0.1682
     19 N           3.8588    0.4454   27.7194 N.pl3   1  UNL1       -0.1900
     20 C           4.6916   -0.7676   27.4279 C.3     1  UNL1        0.1682
     21 C           4.6331   -1.4096   26.0735 C.3     1  UNL1        0.0444
     22 C           4.5129   -2.0493   24.5748 C.3     1  UNL1        0.0808
     23 N           5.4775   -2.8306   25.4169 N.3     1  UNL1       -0.3202
     24 H           5.5345   -2.4121   26.3453 H       1  UNL1        0.1189
     25 H           6.3991   -2.8161   24.9802 H       1  UNL1        0.1189
     26 C           3.5213    3.1982   34.2724 C.ar    1  UNL1        0.0333
     27 C           2.4855    4.2745   34.4095 C.ar    1  UNL1        0.0229
     28 C           1.6393    4.3478   35.6458 C.ar    1  UNL1        0.1004
     29 N           1.8288    3.3449   36.7450 N.ar    1  UNL1       -0.2285
     30 C           2.8646    2.2686   36.6079 C.ar    1  UNL1        0.1391
     31 C           3.7109    2.1953   35.3715 C.ar    1  UNL1        0.0902
     32 CL          4.7467    1.1191   35.2344 Cl      1  UNL1       -0.0793
     33 N           3.0543    1.2657   37.7070 N.pl3   1  UNL1       -0.3191
     34 H           3.9061    0.7788   37.7875 H       1  UNL1        0.1482
     35 C           1.9459    1.0046   38.6835 C.3     1  UNL1        0.0705
     36 C           0.8128    1.5080   39.5275 C.3     1  UNL1        0.0212
     37 C           1.1595    0.0487   39.5307 C.3     1  UNL1        0.0212
@<TRIPOS>BOND
     1    13    12    1
     2    13    14    1
     3    14    15    1
     4    15    16    1
     5    16    17    1
     6    17    18    1
     7    18    19    1
     8    19     1    1
     9     1     2    2
    10     2     3    1
    11     3     4    2
    12     4     5    1
    13     5     6    2
    14     6    26    1
    15    26    27   ar
    16    27    28   ar
    17    28    29   ar
    18    29    30   ar
    19    30    33    1
    20    33    35    1
    21    35    36    1
    22    36    37    1
    23    30    31   ar
    24    31    32    1
    25     6     7    1
    26     7     8    1
    27     8     9    2
    28     8    10   am
    29    10    11    1
    30    19    20    1
    31    20    21    1
    32    16    22    1
    33    22    23    1
    34    22    13    1
    35    21    16    1
    36    10     1    1
    37     7     3    1
    38    31    26   ar
    39    37    35    1
    40    33    34    1
    41    23    24    1
    42    23    25    1
@<TRIPOS>MOLECULE
*****
 37 42 0 0 0
SMALL
GASTEIGER

@<TRIPOS>ATOM
      1 C           2.1602    1.1105   24.5668 C.2     1  UNL1        0.4243
      2 N           0.9668    1.1890   23.6615 N.2     1  UNL1        0.0275
      3 C           1.0642    0.6971   22.2477 C.2     1  UNL1        0.3991
      4 N           0.0635    0.6464   21.1315 N.2     1  UNL1        0.0826
      5 N           0.7359    0.0448   19.9332 N.2     1  UNL1       -0.0375
      6 C           2.1521   -0.2763   20.3089 C.2     1  UNL1        0.1283
      7 C           2.3550    0.1269   21.7393 C.3     1  UNL1        0.2504
      8 C           3.5485    0.0484   22.6447 C.2     1  UNL1        0.3055
      9 O           4.8393   -0.5218   22.1363 O.2     1  UNL1       -0.2554
     10 N           3.4510    0.5402   24.0584 N.am    1  UNL1       -0.1358
     11 C           4.6445    0.4618   24.9637 C.3     1  UNL1        0.2167
     12 C           1.3389    2.2196   32.6357 C.3     1  UNL1        0.0335
     13 C           1.5800    2.6436   31.2173 C.3     1  UNL1        0.1294
     14 O           1.8561    4.0420   30.7498 O.3     1  UNL1       -0.3548
     15 C           2.0341    4.0063   29.2608 C.3     1  UNL1        0.1435
     16 C           1.8680    2.5860   28.8080 C.3     1  UNL1        0.0490
     17 C           2.1558    3.5510   27.6963 C.3     1  UNL1        0.0444
     18 C           2.2532    3.0592   26.2826 C.3     1  UNL1        0.1682
     19 N           2.0627    1.6023   25.9806 N.pl3   1  UNL1       -0.1900
     20 C           1.7749    0.6373   27.0922 C.3     1  UNL1        0.1682
     21 C           1.6775    1.1291   28.5059 C.3     1  UNL1        0.0444
     22 C           1.5873    1.7438   30.0172 C.3     1  UNL1        0.0808
     23 N           1.3548    0.2620   30.0248 N.3     1  UNL1       -0.3202
     24 H           1.4162   -0.0967   29.0719 H       1  UNL1        0.1189
     25 H           0.4283    0.0651   30.4032 H       1  UNL1        0.1189
     26 C           3.1843   -0.8924   19.4116 C.ar    1  UNL1        0.0333
     27 C           3.4365   -2.3701   19.4627 C.ar    1  UNL1        0.0229
     28 C           4.4685   -2.9863   18.5654 C.ar    1  UNL1        0.1004
     29 N           5.2484   -2.1247   17.6170 N.ar    1  UNL1       -0.2285
     30 C           4.9962   -0.6470   17.5659 C.ar    1  UNL1        0.1391
     31 C           3.9642   -0.0308   18.4632 C.ar    1  UNL1        0.0902
     32 CL          3.7120    1.4469   18.4121 Cl      1  UNL1       -0.0793
     33 N           5.7761    0.2146   16.6176 N.pl3   1  UNL1       -0.3191
     34 H           5.4410    0.3705   15.7051 H       1  UNL1        0.1482
     35 C           7.0665    0.8388   17.0595 C.3     1  UNL1        0.0705
     36 C           8.1708    1.8306   16.8435 C.3     1  UNL1        0.0212
     37 C           8.1972    0.9279   18.0411 C.3     1  UNL1        0.0212
@<TRIPOS>BOND
     1    13    12    1
     2    13    14    1
     3    14    15    1
     4    15    16    1
     5    16    17    1
     6    17    18    1
     7    18    19    1
     8    19     1    1
     9     1     2    2
    10     2     3    1
    11     3     4    2
    12     4     5    1
    13     5     6    2
    14     6    26    1
    15    26    27   ar
    16    27    28   ar
    17    28    29   ar
    18    29    30   ar
    19    30    33    1
    20    33    35    1
    21    35    36    1
    22    36    37    1
    23    30    31   ar
    24    31    32    1
    25     6     7    1
    26     7     8    1
    27     8     9    2
    28     8    10   am
    29    10    11    1
    30    19    20    1
    31    20    21    1
    32    16    22    1
    33    22    23    1
    34    22    13    1
    35    21    16    1
    36    10     1    1
    37     7     3    1
    38    31    26   ar
    39    37    35    1
    40    33    34    1
    41    23    24    1
    42    23    25    1
@<TRIPOS>MOLECULE
*****
 37 42 0 0 0
SMALL
GASTEIGER

@<TRIPOS>ATOM
      1 C           6.5218   -3.6163   22.4711 C.2     1  UNL1        0.4243
      2 N           5.3161   -3.9769   21.6549 N.2     1  UNL1        0.0275
      3 C           4.9126   -3.1180   20.4931 C.2     1  UNL1        0.3991
      4 N           3.7812   -3.2212   19.5139 N.2     1  UNL1        0.0826
      5 N           3.8841   -2.0657   18.5631 N.2     1  UNL1       -0.0375
      6 C           5.0794   -1.2483   18.9547 C.2     1  UNL1        0.1283
      7 C           5.7150   -1.8987   20.1475 C.3     1  UNL1        0.2504
      8 C           6.9208   -1.5382   20.9637 C.2     1  UNL1        0.3055
      9 O           7.7232   -0.3188   20.6182 O.2     1  UNL1       -0.2554
     10 N           7.3242   -2.3970   22.1255 N.am    1  UNL1       -0.1358
     11 C           8.5300   -2.0365   22.9417 C.3     1  UNL1        0.2167
     12 C           9.5327   -9.1691   27.6780 C.3     1  UNL1        0.0335
     13 C           8.7453   -7.9556   27.2818 C.3     1  UNL1        0.1294
     14 O           7.9607   -7.0729   28.2067 O.3     1  UNL1       -0.3548
     15 C           7.3346   -5.9834   27.3875 C.3     1  UNL1        0.1435
     16 C           7.7321   -6.1927   25.9564 C.3     1  UNL1        0.0490
     17 C           6.8510   -4.9989   26.1765 C.3     1  UNL1        0.0444
     18 C           6.4476   -4.1401   25.0147 C.3     1  UNL1        0.1682
     19 N           6.9253   -4.4752   23.6329 N.pl3   1  UNL1       -0.1900
     20 C           7.8064   -5.6689   23.4128 C.3     1  UNL1        0.1682
     21 C           8.2098   -6.5277   24.5745 C.3     1  UNL1        0.0444
     22 C           8.6040   -7.4116   25.8911 C.3     1  UNL1        0.0808
     23 N           9.2254   -7.9856   24.6524 N.3     1  UNL1       -0.3202
     24 H           8.9649   -7.4172   23.8465 H       1  UNL1        0.1189
     25 H           8.8934   -8.9405   24.5166 H       1  UNL1        0.1189
     26 C           5.5553    0.0003   18.2731 C.ar    1  UNL1        0.0333
     27 C           6.5451   -0.0894   17.1496 C.ar    1  UNL1        0.0229
     28 C           7.0211    1.1591   16.4679 C.ar    1  UNL1        0.1004
     29 N           6.5073    2.4973   16.9098 N.ar    1  UNL1       -0.2285
     30 C           5.5175    2.5870   18.0333 C.ar    1  UNL1        0.1391
     31 C           5.0415    1.3385   18.7150 C.ar    1  UNL1        0.0902
     32 CL          4.0518    1.4282   19.8385 Cl      1  UNL1       -0.0793
     33 N           5.0037    3.9251   18.4752 N.pl3   1  UNL1       -0.3191
     34 H           5.5499    4.4911   19.0673 H       1  UNL1        0.1482
     35 C           3.6576    4.4009   18.0151 C.3     1  UNL1        0.0705
     36 C           2.8193    5.3667   17.2312 C.3     1  UNL1        0.0212
     37 C           2.1644    4.2591   18.0022 C.3     1  UNL1        0.0212
@<TRIPOS>BOND
     1    13    12    1
     2    13    14    1
     3    14    15    1
     4    15    16    1
     5    16    17    1
     6    17    18    1
     7    18    19    1
     8    19     1    1
     9     1     2    2
    10     2     3    1
    11     3     4    2
    12     4     5    1
    13     5     6    2
    14     6    26    1
    15    26    27   ar
    16    27    28   ar
    17    28    29   ar
    18    29    30   ar
    19    30    33    1
    20    33    35    1
    21    35    36    1
    22    36    37    1
    23    30    31   ar
    24    31    32    1
    25     6     7    1
    26     7     8    1
    27     8     9    2
    28     8    10   am
    29    10    11    1
    30    19    20    1
    31    20    21    1
    32    16    22    1
    33    22    23    1
    34    22    13    1
    35    21    16    1
    36    10     1    1
    37     7     3    1
    38    31    26   ar
    39    37    35    1
    40    33    34    1
    41    23    24    1
    42    23    25    1
