@<TRIPOS>MOLECULE
*****
 30 33 0 0 0
SMALL
GASTEIGER

@<TRIPOS>ATOM
      1 C           4.6219   -3.1454   22.5318 C.ar    1  UNL1        0.0016
      2 C           3.7593   -2.0013   22.9756 C.ar    1  UNL1        0.0005
      3 C           4.0178   -1.3345   24.2941 C.ar    1  UNL1        0.0338
      4 C           5.1389   -1.8118   25.1690 C.ar    1  UNL1        0.1287
      5 N           6.0016   -2.9559   24.7251 N.ar    1  UNL1       -0.2297
      6 C           5.7431   -3.6227   23.4066 C.ar    1  UNL1        0.0963
      7 N           5.3974   -1.1450   26.4875 N.pl3   1  UNL1       -0.3144
      8 H           5.9989   -1.5667   27.1429 H       1  UNL1        0.1485
      9 C           4.7393    0.1644   26.8075 C.3     1  UNL1        0.1169
     10 C           3.3530    0.1869   27.3800 C.ar    1  UNL1        0.0166
     11 C           2.2884    1.0235   26.7345 C.ar    1  UNL1        0.0004
     12 C           0.9022    1.0460   27.3071 C.ar    1  UNL1        0.0228
     13 C           0.5805    0.2318   28.5251 C.ar    1  UNL1        0.1526
     14 N           1.6451   -0.6048   29.1707 N.ar    1  UNL1       -0.2401
     15 C           3.0313   -0.6272   28.5981 C.ar    1  UNL1        0.0961
     16 C          -0.8058    0.2543   29.0977 C.3     1  UNL1        0.4348
     17 F          -2.1921    0.2768   29.6702 F       1  UNL1       -0.1644
     18 F          -1.1930   -0.8872   28.2049 F       1  UNL1       -0.1644
     19 F          -0.4185    1.3959   29.9904 F       1  UNL1       -0.1644
     20 C           4.3635   -3.8122   21.2133 C.3     1  UNL1        0.0580
     21 C           0.4120    0.4281   20.1188 C.3     1  UNL1        0.0307
     22 C           1.6179   -0.1864   19.4721 C.2     1  UNL1        0.0074
     23 C           2.0934    0.3165   18.1413 C.2     1  UNL1        0.2278
     24 N           3.2992   -0.2980   17.4946 N.2     1  UNL1       -0.0314
     25 C           4.0296   -1.4154   18.1785 C.2     1  UNL1        0.3716
     26 N           5.2396   -2.2110   17.7878 N.2     1  UNL1       -0.0311
     27 C           5.5120   -3.2057   18.8770 C.2     1  UNL1        0.2319
     28 C           4.4703   -3.0248   19.9410 C.2     1  UNL1        0.0328
     29 C           3.5541   -1.9184   19.5093 C.2     1  UNL1        0.0704
     30 C           2.3482   -1.3038   20.1560 C.3     1  UNL1        0.0598
@<TRIPOS>BOND
     1    21    22    1
     2    22    23    2
     3    23    24    1
     4    24    25    2
     5    25    26    1
     6    26    27    2
     7    27    28    1
     8    28    20    1
     9    20     1    1
    10     1     2   ar
    11     2     3   ar
    12     3     4   ar
    13     4     7    1
    14     7     9    1
    15     9    10    1
    16    10    11   ar
    17    11    12   ar
    18    12    13   ar
    19    13    16    1
    20    16    17    1
    21    16    18    1
    22    16    19    1
    23    13    14   ar
    24    14    15   ar
    25     4     5   ar
    26     5     6   ar
    27    28    29    2
    28    29    30    1
    29    30    22    1
    30    29    25    1
    31     6     1   ar
    32    15    10   ar
    33     7     8    1
@<TRIPOS>MOLECULE
*****
 30 33 0 0 0
SMALL
GASTEIGER

@<TRIPOS>ATOM
      1 C           5.0396   -3.5372   21.9425 C.ar    1  UNL1        0.0016
      2 C           4.2504   -2.6658   22.8741 C.ar    1  UNL1        0.0005
      3 C           4.8235   -2.2787   24.2052 C.ar    1  UNL1        0.0338
      4 C           6.1858   -2.7630   24.6047 C.ar    1  UNL1        0.1287
      5 N           6.9750   -3.6344   23.6730 N.ar    1  UNL1       -0.2297
      6 C           6.4019   -4.0215   22.3420 C.ar    1  UNL1        0.0963
      7 N           6.7589   -2.3760   25.9358 N.pl3   1  UNL1       -0.3144
      8 H           7.6334   -1.9262   25.9832 H       1  UNL1        0.1485
      9 C           5.9995   -2.6741   27.1945 C.3     1  UNL1        0.1169
     10 C           6.5707   -3.6203   28.2086 C.ar    1  UNL1        0.0166
     11 C           6.7143   -3.1903   29.6384 C.ar    1  UNL1        0.0004
     12 C           7.2854   -4.1365   30.6525 C.ar    1  UNL1        0.0228
     13 C           7.7129   -5.5129   30.2368 C.ar    1  UNL1        0.1526
     14 N           7.5693   -5.9430   28.8069 N.ar    1  UNL1       -0.2401
     15 C           6.9982   -4.9967   27.7929 C.ar    1  UNL1        0.0961
     16 C           8.2841   -6.4592   31.2509 C.3     1  UNL1        0.4348
     17 F           8.8552   -7.4054   32.2650 F       1  UNL1       -0.1644
     18 F           9.5359   -6.5798   30.4334 F       1  UNL1       -0.1644
     19 F           7.0322   -6.3385   32.0685 F       1  UNL1       -0.1644
     20 C           4.4665   -3.9242   20.6114 C.3     1  UNL1        0.0580
     21 C           0.2823    0.2305   20.4616 C.3     1  UNL1        0.0307
     22 C           1.4676   -0.2086   19.6539 C.2     1  UNL1        0.0074
     23 C           1.8345    0.5273   18.3994 C.2     1  UNL1        0.2278
     24 N           3.0198    0.0882   17.5918 N.2     1  UNL1       -0.0314
     25 C           3.8381   -1.0868   18.0386 C.2     1  UNL1        0.3716
     26 N           5.0517   -1.7457   17.4528 N.2     1  UNL1       -0.0311
     27 C           5.4348   -2.8888   18.3453 C.2     1  UNL1        0.2319
     28 C           4.4580   -2.9364   19.4827 C.2     1  UNL1        0.0328
     29 C           3.4712   -1.8227   19.2931 C.2     1  UNL1        0.0704
     30 C           2.2860   -1.3836   20.1008 C.3     1  UNL1        0.0598
@<TRIPOS>BOND
     1    21    22    1
     2    22    23    2
     3    23    24    1
     4    24    25    2
     5    25    26    1
     6    26    27    2
     7    27    28    1
     8    28    20    1
     9    20     1    1
    10     1     2   ar
    11     2     3   ar
    12     3     4   ar
    13     4     7    1
    14     7     9    1
    15     9    10    1
    16    10    11   ar
    17    11    12   ar
    18    12    13   ar
    19    13    16    1
    20    16    17    1
    21    16    18    1
    22    16    19    1
    23    13    14   ar
    24    14    15   ar
    25     4     5   ar
    26     5     6   ar
    27    28    29    2
    28    29    30    1
    29    30    22    1
    30    29    25    1
    31     6     1   ar
    32    15    10   ar
    33     7     8    1
@<TRIPOS>MOLECULE
*****
 30 33 0 0 0
SMALL
GASTEIGER

@<TRIPOS>ATOM
      1 C           1.4118    0.9448   18.7824 C.ar    1  UNL1        0.0016
      2 C           0.8672    2.2806   18.3712 C.ar    1  UNL1        0.0005
      3 C          -0.2401    2.9143   19.1601 C.ar    1  UNL1        0.0338
      4 C          -0.8028    2.2122   20.3603 C.ar    1  UNL1        0.1287
      5 N          -0.2582    0.8763   20.7715 N.ar    1  UNL1       -0.2297
      6 C           0.8491    0.2426   19.9826 C.ar    1  UNL1        0.0963
      7 N          -1.9101    2.8459   21.1492 N.pl3   1  UNL1       -0.3144
      8 H          -1.7764    3.0602   22.1007 H       1  UNL1        0.1485
      9 C          -3.2212    3.1530   20.4883 C.3     1  UNL1        0.1169
     10 C          -4.3922    3.5953   21.3147 C.ar    1  UNL1        0.0166
     11 C          -4.3806    3.3926   22.8009 C.ar    1  UNL1        0.0004
     12 C          -5.5517    3.8349   23.6273 C.ar    1  UNL1        0.0228
     13 C          -6.7344    4.4799   22.9676 C.ar    1  UNL1        0.1526
     14 N          -6.7459    4.6825   21.4813 N.ar    1  UNL1       -0.2401
     15 C          -5.5749    4.2402   20.6550 C.ar    1  UNL1        0.0961
     16 C          -7.9054    4.9221   23.7940 C.3     1  UNL1        0.4348
     17 F          -9.0765    5.3644   24.6205 F       1  UNL1       -0.1644
     18 F          -8.5910    3.6161   23.5215 F       1  UNL1       -0.1644
     19 F          -7.2198    6.2282   24.0665 F       1  UNL1       -0.1644
     20 C           2.5191    0.3111   17.9935 C.3     1  UNL1        0.0580
     21 C           3.6236   -5.2565   19.5976 C.3     1  UNL1        0.0307
     22 C           4.2921   -3.9145   19.6420 C.2     1  UNL1        0.0074
     23 C           5.6586   -3.7768   20.2450 C.2     1  UNL1        0.2278
     24 N           6.3270   -2.4347   20.2894 N.2     1  UNL1       -0.0314
     25 C           5.6290   -1.2303   19.7307 C.2     1  UNL1        0.3716
     26 N           6.0350    0.2105   19.6346 N.2     1  UNL1       -0.0311
     27 C           4.9195    0.9633   18.9722 C.2     1  UNL1        0.2319
     28 C           3.8240   -0.0123   18.6588 C.2     1  UNL1        0.0328
     29 C           4.2625   -1.3680   19.1277 C.2     1  UNL1        0.0704
     30 C           3.5941   -2.7101   19.0833 C.3     1  UNL1        0.0598
@<TRIPOS>BOND
     1    21    22    1
     2    22    23    2
     3    23    24    1
     4    24    25    2
     5    25    26    1
     6    26    27    2
     7    27    28    1
     8    28    20    1
     9    20     1    1
    10     1     2   ar
    11     2     3   ar
    12     3     4   ar
    13     4     7    1
    14     7     9    1
    15     9    10    1
    16    10    11   ar
    17    11    12   ar
    18    12    13   ar
    19    13    16    1
    20    16    17    1
    21    16    18    1
    22    16    19    1
    23    13    14   ar
    24    14    15   ar
    25     4     5   ar
    26     5     6   ar
    27    28    29    2
    28    29    30    1
    29    30    22    1
    30    29    25    1
    31     6     1   ar
    32    15    10   ar
    33     7     8    1
@<TRIPOS>MOLECULE
*****
 30 33 0 0 0
SMALL
GASTEIGER

@<TRIPOS>ATOM
      1 C           1.5533    0.8545   18.7688 C.ar    1  UNL1        0.0016
      2 C           1.2096    2.3033   18.5880 C.ar    1  UNL1        0.0005
      3 C           0.1995    2.9525   19.4870 C.ar    1  UNL1        0.0338
      4 C          -0.4669    2.1528   20.5670 C.ar    1  UNL1        0.1287
      5 N          -0.1232    0.7039   20.7478 N.ar    1  UNL1       -0.2297
      6 C           0.8869    0.0547   19.8488 C.ar    1  UNL1        0.0963
      7 N          -1.4770    2.8019   21.4660 N.pl3   1  UNL1       -0.3144
      8 H          -2.4386    2.6967   21.2829 H       1  UNL1        0.1485
      9 C          -1.0220    3.6113   22.6441 C.3     1  UNL1        0.1169
     10 C          -0.8541    2.9572   23.9835 C.ar    1  UNL1        0.0166
     11 C           0.2054    1.9141   24.1812 C.ar    1  UNL1        0.0004
     12 C           0.3734    1.2600   25.5206 C.ar    1  UNL1        0.0228
     13 C          -0.5183    1.6491   26.6624 C.ar    1  UNL1        0.1526
     14 N          -1.5779    2.6923   26.4646 N.ar    1  UNL1       -0.2401
     15 C          -1.7458    3.3463   25.1252 C.ar    1  UNL1        0.0961
     16 C          -0.3503    0.9951   28.0018 C.3     1  UNL1        0.4348
     17 F          -0.1824    0.3410   29.3412 F       1  UNL1       -0.1644
     18 F          -1.8322    1.0676   28.2230 F       1  UNL1       -0.1644
     19 F           1.1315    0.9226   27.7805 F       1  UNL1       -0.1644
     20 C           2.5634    0.2054   17.8698 C.3     1  UNL1        0.0580
     21 C           3.5206   -5.3023   19.7516 C.3     1  UNL1        0.0307
     22 C           4.2679   -4.0086   19.6173 C.2     1  UNL1        0.0074
     23 C           5.7024   -3.9230   20.0469 C.2     1  UNL1        0.2278
     24 N           6.4497   -2.6293   19.9126 N.2     1  UNL1       -0.0314
     25 C           5.7623   -1.4212   19.3487 C.2     1  UNL1        0.3716
     26 N           6.2384   -0.0211   19.0981 N.2     1  UNL1       -0.0311
     27 C           5.0981    0.7587   18.5135 C.2     1  UNL1        0.2319
     28 C           3.9172   -0.1595   18.4029 C.2     1  UNL1        0.0328
     29 C           4.3277   -1.5068   18.9191 C.2     1  UNL1        0.0704
     30 C           3.5805   -2.8005   19.0534 C.3     1  UNL1        0.0598
@<TRIPOS>BOND
     1    21    22    1
     2    22    23    2
     3    23    24    1
     4    24    25    2
     5    25    26    1
     6    26    27    2
     7    27    28    1
     8    28    20    1
     9    20     1    1
    10     1     2   ar
    11     2     3   ar
    12     3     4   ar
    13     4     7    1
    14     7     9    1
    15     9    10    1
    16    10    11   ar
    17    11    12   ar
    18    12    13   ar
    19    13    16    1
    20    16    17    1
    21    16    18    1
    22    16    19    1
    23    13    14   ar
    24    14    15   ar
    25     4     5   ar
    26     5     6   ar
    27    28    29    2
    28    29    30    1
    29    30    22    1
    30    29    25    1
    31     6     1   ar
    32    15    10   ar
    33     7     8    1
@<TRIPOS>MOLECULE
*****
 30 33 0 0 0
SMALL
GASTEIGER

@<TRIPOS>ATOM
      1 C           4.8127   -3.4142   22.4893 C.ar    1  UNL1        0.0016
      2 C           4.0442   -2.3394   23.1994 C.ar    1  UNL1        0.0005
      3 C           4.5291   -1.8181   24.5196 C.ar    1  UNL1        0.0338
      4 C           5.7827   -2.3715   25.1298 C.ar    1  UNL1        0.1287
      5 N           6.5512   -3.4463   24.4197 N.ar    1  UNL1       -0.2297
      6 C           6.0663   -3.9677   23.0995 C.ar    1  UNL1        0.0963
      7 N           6.2676   -1.8502   26.4501 N.pl3   1  UNL1       -0.3144
      8 H           6.3285   -0.8797   26.6037 H       1  UNL1        0.1485
      9 C           6.6597   -2.8076   27.5362 C.3     1  UNL1        0.1169
     10 C           6.2331   -2.5520   28.9513 C.ar    1  UNL1        0.0166
     11 C           6.6782   -3.4744   30.0471 C.ar    1  UNL1        0.0004
     12 C           6.2516   -3.2188   31.4623 C.ar    1  UNL1        0.0228
     13 C           5.3798   -2.0407   31.7816 C.ar    1  UNL1        0.1526
     14 N           4.9347   -1.1182   30.6857 N.ar    1  UNL1       -0.2401
     15 C           5.3613   -1.3738   29.2707 C.ar    1  UNL1        0.0961
     16 C           4.9532   -1.7851   33.1968 C.3     1  UNL1        0.4348
     17 F           4.5266   -1.5295   34.6119 F       1  UNL1       -0.1644
     18 F           4.6193   -3.2384   33.3586 F       1  UNL1       -0.1644
     19 F           5.2871   -0.3316   33.0348 F       1  UNL1       -0.1644
     20 C           4.3277   -3.9355   21.1691 C.3     1  UNL1        0.0580
     21 C           0.3717    0.3506   20.2912 C.3     1  UNL1        0.0307
     22 C           1.5798   -0.2271   19.6155 C.2     1  UNL1        0.0074
     23 C           2.0572    0.3459   18.3142 C.2     1  UNL1        0.2278
     24 N           3.2654   -0.2318   17.6384 N.2     1  UNL1       -0.0314
     25 C           3.9961   -1.3827   18.2641 C.2     1  UNL1        0.3716
     26 N           5.2083   -2.1548   17.8345 N.2     1  UNL1       -0.0311
     27 C           5.4800   -3.2050   18.8705 C.2     1  UNL1        0.2319
     28 C           4.4359   -3.0821   19.9403 C.2     1  UNL1        0.0328
     29 C           3.5187   -1.9557   19.5655 C.2     1  UNL1        0.0704
     30 C           2.3106   -1.3780   20.2412 C.3     1  UNL1        0.0598
@<TRIPOS>BOND
     1    21    22    1
     2    22    23    2
     3    23    24    1
     4    24    25    2
     5    25    26    1
     6    26    27    2
     7    27    28    1
     8    28    20    1
     9    20     1    1
    10     1     2   ar
    11     2     3   ar
    12     3     4   ar
    13     4     7    1
    14     7     9    1
    15     9    10    1
    16    10    11   ar
    17    11    12   ar
    18    12    13   ar
    19    13    16    1
    20    16    17    1
    21    16    18    1
    22    16    19    1
    23    13    14   ar
    24    14    15   ar
    25     4     5   ar
    26     5     6   ar
    27    28    29    2
    28    29    30    1
    29    30    22    1
    30    29    25    1
    31     6     1   ar
    32    15    10   ar
    33     7     8    1
@<TRIPOS>MOLECULE
*****
 30 33 0 0 0
SMALL
GASTEIGER

@<TRIPOS>ATOM
      1 C          -0.3444    2.1939   25.3757 C.ar    1  UNL1        0.0016
      2 C           0.6661    1.1326   25.0560 C.ar    1  UNL1        0.0005
      3 C           1.1134    0.9252   23.6393 C.ar    1  UNL1        0.0338
      4 C           0.5501    1.7792   22.5423 C.ar    1  UNL1        0.1287
      5 N          -0.4606    2.8406   22.8621 N.ar    1  UNL1       -0.2297
      6 C          -0.9078    3.0480   24.2788 C.ar    1  UNL1        0.0963
      7 N           0.9973    1.5718   21.1257 N.pl3   1  UNL1       -0.3144
      8 H           0.3382    1.5848   20.3945 H       1  UNL1        0.1485
      9 C           2.4488    1.3448   20.8231 C.3     1  UNL1        0.1169
     10 C           2.9097    0.0098   20.3177 C.ar    1  UNL1        0.0166
     11 C           3.1298   -1.1208   21.2786 C.ar    1  UNL1        0.0004
     12 C           3.5906   -2.4557   20.7732 C.ar    1  UNL1        0.0228
     13 C           3.8313   -2.6602   19.3068 C.ar    1  UNL1        0.1526
     14 N           3.6112   -1.5296   18.3459 N.ar    1  UNL1       -0.2401
     15 C           3.1504   -0.1947   18.8513 C.ar    1  UNL1        0.0961
     16 C           4.2922   -3.9952   18.8015 C.3     1  UNL1        0.4348
     17 F           4.7530   -5.3302   18.2961 F       1  UNL1       -0.1644
     18 F           2.9175   -4.5533   19.0221 F       1  UNL1       -0.1644
     19 F           5.6669   -3.4370   18.5808 F       1  UNL1       -0.1644
     20 C          -0.7917    2.4013   26.7924 C.3     1  UNL1        0.0580
     21 C           4.6522    2.4392   29.0627 C.3     1  UNL1        0.0307
     22 C           3.3721    1.6715   29.2105 C.2     1  UNL1        0.0074
     23 C           3.2853    0.5394   30.1907 C.2     1  UNL1        0.2278
     24 N           2.0051   -0.2283   30.3384 N.2     1  UNL1       -0.0314
     25 C           0.8117    0.1361   29.5060 C.2     1  UNL1        0.3716
     26 N          -0.5733   -0.4352   29.4329 N.2     1  UNL1       -0.0311
     27 C          -1.3425    0.3438   28.4075 C.2     1  UNL1        0.2319
     28 C          -0.4329    1.3966   27.8468 C.2     1  UNL1        0.0328
     29 C           0.8985    1.2681   28.5258 C.2     1  UNL1        0.0704
     30 C           2.1787    2.0358   28.3780 C.3     1  UNL1        0.0598
@<TRIPOS>BOND
     1    21    22    1
     2    22    23    2
     3    23    24    1
     4    24    25    2
     5    25    26    1
     6    26    27    2
     7    27    28    1
     8    28    20    1
     9    20     1    1
    10     1     2   ar
    11     2     3   ar
    12     3     4   ar
    13     4     7    1
    14     7     9    1
    15     9    10    1
    16    10    11   ar
    17    11    12   ar
    18    12    13   ar
    19    13    16    1
    20    16    17    1
    21    16    18    1
    22    16    19    1
    23    13    14   ar
    24    14    15   ar
    25     4     5   ar
    26     5     6   ar
    27    28    29    2
    28    29    30    1
    29    30    22    1
    30    29    25    1
    31     6     1   ar
    32    15    10   ar
    33     7     8    1
@<TRIPOS>MOLECULE
*****
 30 33 0 0 0
SMALL
GASTEIGER

@<TRIPOS>ATOM
      1 C          -0.6389    3.0879   25.1647 C.ar    1  UNL1        0.0016
      2 C          -0.5482    1.9022   26.0789 C.ar    1  UNL1        0.0005
      3 C           0.4181    0.7951   25.7779 C.ar    1  UNL1        0.0338
      4 C           1.2939    0.8738   24.5626 C.ar    1  UNL1        0.1287
      5 N           1.2032    2.0595   23.6484 N.ar    1  UNL1       -0.2297
      6 C           0.2368    3.1666   23.9494 C.ar    1  UNL1        0.0963
      7 N           2.2602   -0.2333   24.2616 N.pl3   1  UNL1       -0.3144
      8 H           2.2196   -1.0744   24.7717 H       1  UNL1        0.1485
      9 C           3.2884   -0.0588   23.1835 C.3     1  UNL1        0.1169
     10 C           3.5626   -1.1759   22.2208 C.ar    1  UNL1        0.0166
     11 C           3.1063   -1.0673   20.7961 C.ar    1  UNL1        0.0004
     12 C           3.3805   -2.1844   19.8334 C.ar    1  UNL1        0.0228
     13 C           4.1111   -3.4103   20.2954 C.ar    1  UNL1        0.1526
     14 N           4.5674   -3.5190   21.7202 N.ar    1  UNL1       -0.2401
     15 C           4.2932   -2.4018   22.6828 C.ar    1  UNL1        0.0961
     16 C           4.3853   -4.5274   19.3327 C.3     1  UNL1        0.4348
     17 F           4.6596   -5.6446   18.3700 F       1  UNL1       -0.1644
     18 F           5.8347   -4.5040   19.7184 F       1  UNL1       -0.1644
     19 F           2.9359   -4.5508   18.9471 F       1  UNL1       -0.1644
     20 C          -1.6053    4.1949   25.4657 C.3     1  UNL1        0.0580
     21 C          -3.2498    3.6863   19.8240 C.3     1  UNL1        0.0307
     22 C          -3.8776    3.7064   21.1862 C.2     1  UNL1        0.0074
     23 C          -5.3641    3.5660   21.3290 C.2     1  UNL1        0.2278
     24 N          -5.9919    3.5861   22.6912 N.2     1  UNL1       -0.0314
     25 C          -5.1331    3.7465   23.9105 C.2     1  UNL1        0.3716
     26 N          -5.4656    3.8022   25.3721 N.2     1  UNL1       -0.0311
     27 C          -4.1845    3.9770   26.1326 C.2     1  UNL1        0.2319
     28 C          -3.0603    4.0292   25.1410 C.2     1  UNL1        0.0328
     29 C          -3.6466    3.8868   23.7677 C.2     1  UNL1        0.0704
     30 C          -3.0188    3.8667   22.4055 C.3     1  UNL1        0.0598
@<TRIPOS>BOND
     1    21    22    1
     2    22    23    2
     3    23    24    1
     4    24    25    2
     5    25    26    1
     6    26    27    2
     7    27    28    1
     8    28    20    1
     9    20     1    1
    10     1     2   ar
    11     2     3   ar
    12     3     4   ar
    13     4     7    1
    14     7     9    1
    15     9    10    1
    16    10    11   ar
    17    11    12   ar
    18    12    13   ar
    19    13    16    1
    20    16    17    1
    21    16    18    1
    22    16    19    1
    23    13    14   ar
    24    14    15   ar
    25     4     5   ar
    26     5     6   ar
    27    28    29    2
    28    29    30    1
    29    30    22    1
    30    29    25    1
    31     6     1   ar
    32    15    10   ar
    33     7     8    1
@<TRIPOS>MOLECULE
*****
 30 33 0 0 0
SMALL
GASTEIGER

@<TRIPOS>ATOM
      1 C           6.1231   -0.2139   35.5252 C.ar    1  UNL1        0.0016
      2 C           4.7574   -0.7093   35.1518 C.ar    1  UNL1        0.0005
      3 C           4.5056   -1.2481   33.7748 C.ar    1  UNL1        0.0338
      4 C           5.6195   -1.2916   32.7711 C.ar    1  UNL1        0.1287
      5 N           6.9852   -0.7962   33.1446 N.ar    1  UNL1       -0.2297
      6 C           7.2371   -0.2573   34.5216 C.ar    1  UNL1        0.0963
      7 N           5.3677   -1.8304   31.3941 N.pl3   1  UNL1       -0.3144
      8 H           5.3777   -2.8021   31.2362 H       1  UNL1        0.1485
      9 C           5.1005   -0.8887   30.2575 C.3     1  UNL1        0.1169
     10 C           3.6895   -0.5296   29.8969 C.ar    1  UNL1        0.0166
     11 C           3.1757   -0.8036   28.5146 C.ar    1  UNL1        0.0004
     12 C           1.7646   -0.4445   28.1540 C.ar    1  UNL1        0.0228
     13 C           0.8673    0.1886   29.1758 C.ar    1  UNL1        0.1526
     14 N           1.3812    0.4626   30.5582 N.ar    1  UNL1       -0.2401
     15 C           2.7921    0.1035   30.9187 C.ar    1  UNL1        0.0961
     16 C          -0.5437    0.5477   28.8152 C.3     1  UNL1        0.4348
     17 F          -1.9547    0.9068   28.4546 F       1  UNL1       -0.1644
     18 F          -0.1425    1.9865   28.6779 F       1  UNL1       -0.1644
     19 F          -0.9449   -0.8912   28.9525 F       1  UNL1       -0.1644
     20 C           6.3750    0.3249   36.9023 C.3     1  UNL1        0.0580
     21 C           1.0129    0.2214   39.3577 C.3     1  UNL1        0.0307
     22 C           2.0633    1.2235   38.9804 C.2     1  UNL1        0.0074
     23 C           1.8349    2.6831   39.2397 C.2     1  UNL1        0.2278
     24 N           2.8854    3.6852   38.8624 N.2     1  UNL1       -0.0314
     25 C           4.1642    3.2277   38.2259 C.2     1  UNL1        0.3716
     26 N           5.3726    3.9778   37.7493 N.2     1  UNL1       -0.0311
     27 C           6.3479    2.9817   37.1955 C.2     1  UNL1        0.2319
     28 C           5.7422    1.6160   37.3297 C.2     1  UNL1        0.0328
     29 C           4.3926    1.7681   37.9666 C.2     1  UNL1        0.0704
     30 C           3.3421    0.7660   38.3439 C.3     1  UNL1        0.0598
@<TRIPOS>BOND
     1    21    22    1
     2    22    23    2
     3    23    24    1
     4    24    25    2
     5    25    26    1
     6    26    27    2
     7    27    28    1
     8    28    20    1
     9    20     1    1
    10     1     2   ar
    11     2     3   ar
    12     3     4   ar
    13     4     7    1
    14     7     9    1
    15     9    10    1
    16    10    11   ar
    17    11    12   ar
    18    12    13   ar
    19    13    16    1
    20    16    17    1
    21    16    18    1
    22    16    19    1
    23    13    14   ar
    24    14    15   ar
    25     4     5   ar
    26     5     6   ar
    27    28    29    2
    28    29    30    1
    29    30    22    1
    30    29    25    1
    31     6     1   ar
    32    15    10   ar
    33     7     8    1
@<TRIPOS>MOLECULE
*****
 30 33 0 0 0
SMALL
GASTEIGER

@<TRIPOS>ATOM
      1 C           2.5049    0.5250   19.3596 C.ar    1  UNL1        0.0016
      2 C           1.3192   -0.3021   19.7595 C.ar    1  UNL1        0.0005
      3 C           0.1473    0.3449   20.4363 C.ar    1  UNL1        0.0338
      4 C           0.1611    1.8190   20.7131 C.ar    1  UNL1        0.1287
      5 N           1.3469    2.6462   20.3132 N.ar    1  UNL1       -0.2297
      6 C           2.5188    1.9992   19.6364 C.ar    1  UNL1        0.0963
      7 N          -1.0109    2.4660   21.3899 N.pl3   1  UNL1       -0.3144
      8 H          -1.9232    2.3010   21.0588 H       1  UNL1        0.1485
      9 C          -0.7927    3.3644   22.5710 C.3     1  UNL1        0.1169
     10 C          -0.6793    2.7793   23.9476 C.ar    1  UNL1        0.0166
     11 C           0.3312    1.7063   24.2256 C.ar    1  UNL1        0.0004
     12 C           0.4446    1.1212   25.6021 C.ar    1  UNL1        0.0228
     13 C          -0.4527    1.6091   26.7006 C.ar    1  UNL1        0.1526
     14 N          -1.4633    2.6822   26.4226 N.ar    1  UNL1       -0.2401
     15 C          -1.5766    3.2672   25.0461 C.ar    1  UNL1        0.0961
     16 C          -0.3393    1.0240   28.0771 C.3     1  UNL1        0.4348
     17 F          -0.2260    0.4389   29.4537 F       1  UNL1       -0.1644
     18 F           1.1517    0.9587   27.9266 F       1  UNL1       -0.1644
     19 F          -1.8304    1.0893   28.2276 F       1  UNL1       -0.1644
     20 C           3.6769   -0.1220   18.6829 C.3     1  UNL1        0.0580
     21 C           4.1332   -1.3487   24.4343 C.3     1  UNL1        0.0307
     22 C           4.3410   -2.0298   23.1141 C.2     1  UNL1        0.0074
     23 C           4.8037   -3.4559   23.0706 C.2     1  UNL1        0.2278
     24 N           5.0115   -4.1370   21.7504 N.2     1  UNL1       -0.0314
     25 C           4.7567   -3.3920   20.4737 C.2     1  UNL1        0.3716
     26 N           4.8739   -3.7975   19.0343 N.2     1  UNL1       -0.0311
     27 C           4.4836   -2.6219   18.1883 C.2     1  UNL1        0.2319
     28 C           4.1253   -1.4898   19.1048 C.2     1  UNL1        0.0328
     29 C           4.2941   -1.9658   20.5173 C.2     1  UNL1        0.0704
     30 C           4.0862   -1.2847   21.8375 C.3     1  UNL1        0.0598
@<TRIPOS>BOND
     1    21    22    1
     2    22    23    2
     3    23    24    1
     4    24    25    2
     5    25    26    1
     6    26    27    2
     7    27    28    1
     8    28    20    1
     9    20     1    1
    10     1     2   ar
    11     2     3   ar
    12     3     4   ar
    13     4     7    1
    14     7     9    1
    15     9    10    1
    16    10    11   ar
    17    11    12   ar
    18    12    13   ar
    19    13    16    1
    20    16    17    1
    21    16    18    1
    22    16    19    1
    23    13    14   ar
    24    14    15   ar
    25     4     5   ar
    26     5     6   ar
    27    28    29    2
    28    29    30    1
    29    30    22    1
    30    29    25    1
    31     6     1   ar
    32    15    10   ar
    33     7     8    1
