@<TRIPOS>MOLECULE
*****
 41 46 0 0 0
SMALL
GASTEIGER

@<TRIPOS>ATOM
      1 N           5.2131   -2.1310   25.0810 N.am    1  UNL1       -0.2684
      2 C           5.0608   -2.6743   23.6912 C.3     1  UNL1        0.1205
      3 C           4.2149   -2.3252   22.5027 C.ar    1  UNL1        0.0005
      4 C           4.6049   -3.3142   21.4446 C.ar    1  UNL1        0.0205
      5 C           3.9510   -3.2662   20.0955 C.ar    1  UNL1        0.1524
      6 N           2.9071   -2.2292   19.8045 N.ar    1  UNL1       -0.2399
      7 C           2.5170   -1.2402   20.8626 C.ar    1  UNL1        0.0983
      8 C           3.1709   -1.2882   22.2117 C.ar    1  UNL1        0.0188
      9 C           2.5404   -0.1706   22.9887 C.2     1  UNL1        0.0527
     10 C           1.5601    0.4558   22.0417 C.2     1  UNL1        0.1911
     11 N           0.7322    1.6255   22.4846 N.2     1  UNL1       -0.0723
     12 C           0.8845    2.1688   23.8745 C.cat   1  UNL1        0.3804
     13 N           1.8648    1.5424   24.8214 N.pl3   1  UNL1       -0.1554
     14 C           2.2048    1.8877   26.2410 C.2     1  UNL1        0.2413
     15 N           3.2597    0.9305   26.7109 N.2     1  UNL1       -0.2277
     16 C           3.5386    0.0236   25.5670 C.3     1  UNL1        0.2204
     17 C           4.5826   -1.0134   25.8580 C.2     1  UNL1        0.2521
     18 O           5.1228   -0.9083   27.2534 O.2     1  UNL1       -0.2726
     19 C           2.6927    0.3727   24.3785 C.3     1  UNL1        0.1964
     20 C           4.3411   -4.2553   19.0373 C.3     1  UNL1        0.4348
     21 F           4.7312   -5.2443   17.9792 F       1  UNL1       -0.1644
     22 F           5.7772   -3.8490   19.1869 F       1  UNL1       -0.1644
     23 F           2.9050   -4.6617   18.8877 F       1  UNL1       -0.1644
     24 N           0.0565    3.3386   24.3173 N.pl3   1  UNL1       -0.2203
     25 H           0.0470    3.6042   25.2653 H       1  UNL1        0.2456
     26 C          -0.7568    4.1038   23.3159 C.3     1  UNL1        0.1927
     27 C          -2.2121    3.7889   23.1339 C.ar    1  UNL1        0.0412
     28 C          -2.7464    3.4751   21.7678 C.ar    1  UNL1        0.1391
     29 F          -1.8254    3.4763   20.5838 F       1  UNL1       -0.2044
     30 C          -4.2016    3.1602   21.5857 C.ar    1  UNL1        0.0325
     31 C          -5.1225    3.1591   22.7697 C.ar    1  UNL1        0.0389
     32 C          -4.5882    3.4728   24.1357 C.ar    1  UNL1        0.1346
     33 C          -3.1331    3.7877   24.3178 C.ar    1  UNL1        0.0168
     34 C          -2.8957    4.0567   25.7743 C.3     1  UNL1        0.0766
     35 C          -4.2042    3.9080   26.4924 C.3     1  UNL1        0.2101
     36 O          -5.2503    3.5472   25.4797 O.3     1  UNL1       -0.4754
     37 C           6.2359   -2.8811   25.8817 C.3     1  UNL1        0.1603
     38 C           7.9759   -4.9299   24.5496 C.3     1  UNL1        0.0740
     39 C           7.1059   -3.9055   25.2157 C.3     1  UNL1        0.2820
     40 F           8.0283   -2.8187   24.7489 F       1  UNL1       -0.2025
     41 F           6.1835   -4.9925   25.6824 F       1  UNL1       -0.2025
@<TRIPOS>BOND
     1    38    39    1
     2    39    40    1
     3    39    41    1
     4    39    37    1
     5    37     1    1
     6     1     2    1
     7     2     3    1
     8     3     4   ar
     9     4     5   ar
    10     5    20    1
    11    20    21    1
    12    20    22    1
    13    20    23    1
    14     5     6   ar
    15     6     7   ar
    16     7     8   ar
    17     8     9    1
    18     9    10    2
    19    10    11    1
    20    11    12    2
    21    12    24    1
    22    24    26    1
    23    26    27    1
    24    27    28   ar
    25    28    29    1
    26    28    30   ar
    27    30    31   ar
    28    31    32   ar
    29    32    33   ar
    30    33    34    1
    31    34    35    1
    32    35    36    1
    33    12    13    1
    34    13    14    1
    35    14    15    2
    36    15    16    1
    37    16    17    1
    38    17    18    2
    39    16    19    1
    40    17     1   am
    41     8     3   ar
    42    19     9    1
    43    33    27   ar
    44    19    13    1
    45    36    32    1
    46    24    25    1
@<TRIPOS>MOLECULE
*****
 41 46 0 0 0
SMALL
GASTEIGER

@<TRIPOS>ATOM
      1 N           0.3688    1.5688   26.5823 N.am    1  UNL1       -0.2684
      2 C          -0.9236    2.3165   26.4383 C.3     1  UNL1        0.1205
      3 C          -1.6248    3.0154   25.3114 C.ar    1  UNL1        0.0005
      4 C          -2.8944    3.5425   25.9115 C.ar    1  UNL1        0.0205
      5 C          -3.8632    4.3104   25.0620 C.ar    1  UNL1        0.1524
      6 N          -3.5624    4.5511   23.6123 N.ar    1  UNL1       -0.2399
      7 C          -2.2928    4.0240   23.0122 C.ar    1  UNL1        0.0983
      8 C          -1.3240    3.2562   23.8617 C.ar    1  UNL1        0.0188
      9 C          -0.1974    2.8977   22.9384 C.2     1  UNL1        0.0527
     10 C          -0.5832    3.4800   21.6110 C.2     1  UNL1        0.1911
     11 N           0.3235    3.3146   20.4275 N.2     1  UNL1       -0.0723
     12 C           1.6159    2.5670   20.5715 C.cat   1  UNL1        0.3804
     13 N           2.0016    1.9846   21.8989 N.pl3   1  UNL1       -0.1554
     14 C           3.2175    1.2056   22.3047 C.2     1  UNL1        0.2413
     15 N           3.0880    0.8693   23.7607 N.2     1  UNL1       -0.2277
     16 C           1.7961    1.4510   24.2093 C.3     1  UNL1        0.2204
     17 C           1.4954    1.2103   25.6589 C.2     1  UNL1        0.2521
     18 O           2.5743    0.4274   26.3467 O.2     1  UNL1       -0.2726
     19 C           1.0949    2.1500   23.0823 C.3     1  UNL1        0.1964
     20 C          -5.1328    4.8376   25.6622 C.3     1  UNL1        0.4348
     21 F          -6.4024    5.3647   26.2623 F       1  UNL1       -0.1644
     22 F          -5.4933    5.4650   24.3483 F       1  UNL1       -0.1644
     23 F          -4.7723    4.2102   26.9761 F       1  UNL1       -0.1644
     24 N           2.5225    2.4016   19.3879 N.pl3   1  UNL1       -0.2203
     25 H           3.2450    3.0507   19.2269 H       1  UNL1        0.2456
     26 C           2.3284    1.2474   18.4499 C.3     1  UNL1        0.1927
     27 C           3.1470    0.0012   18.6145 C.ar    1  UNL1        0.0412
     28 C           2.6045   -1.1538   19.4029 C.ar    1  UNL1        0.1391
     29 F           1.2434   -1.0626   20.0268 F       1  UNL1       -0.2044
     30 C           3.4230   -2.3999   19.5676 C.ar    1  UNL1        0.0325
     31 C           4.7841   -2.4910   18.9437 C.ar    1  UNL1        0.0389
     32 C           5.3266   -1.3360   18.1553 C.ar    1  UNL1        0.1346
     33 C           4.5081   -0.0899   17.9907 C.ar    1  UNL1        0.0168
     34 C           5.3004    0.8793   17.1643 C.3     1  UNL1        0.0766
     35 C           6.6085    0.2323   16.8183 C.3     1  UNL1        0.2101
     36 O           6.6248   -1.1369   17.4307 O.3     1  UNL1       -0.4754
     37 C           0.5855    1.0603   27.9767 C.3     1  UNL1        0.1603
     38 C          -1.7384    0.0520   29.5837 C.3     1  UNL1        0.0740
     39 C          -0.5764    0.5561   28.7802 C.3     1  UNL1        0.2820
     40 F          -0.2987    1.5901   29.8306 F       1  UNL1       -0.2025
     41 F          -0.8543   -0.4780   27.7297 F       1  UNL1       -0.2025
@<TRIPOS>BOND
     1    38    39    1
     2    39    40    1
     3    39    41    1
     4    39    37    1
     5    37     1    1
     6     1     2    1
     7     2     3    1
     8     3     4   ar
     9     4     5   ar
    10     5    20    1
    11    20    21    1
    12    20    22    1
    13    20    23    1
    14     5     6   ar
    15     6     7   ar
    16     7     8   ar
    17     8     9    1
    18     9    10    2
    19    10    11    1
    20    11    12    2
    21    12    24    1
    22    24    26    1
    23    26    27    1
    24    27    28   ar
    25    28    29    1
    26    28    30   ar
    27    30    31   ar
    28    31    32   ar
    29    32    33   ar
    30    33    34    1
    31    34    35    1
    32    35    36    1
    33    12    13    1
    34    13    14    1
    35    14    15    2
    36    15    16    1
    37    16    17    1
    38    17    18    2
    39    16    19    1
    40    17     1   am
    41     8     3   ar
    42    19     9    1
    43    33    27   ar
    44    19    13    1
    45    36    32    1
    46    24    25    1
@<TRIPOS>MOLECULE
*****
 41 46 0 0 0
SMALL
GASTEIGER

@<TRIPOS>ATOM
      1 N           2.0659    0.5414   22.2444 N.am    1  UNL1       -0.2684
      2 C           2.6147   -0.6339   21.4910 C.3     1  UNL1        0.1205
      3 C           3.5530   -1.7581   21.8164 C.ar    1  UNL1        0.0005
      4 C           3.6391   -2.5686   20.5572 C.ar    1  UNL1        0.0205
      5 C           4.5035   -3.7937   20.5115 C.ar    1  UNL1        0.1524
      6 N           5.2816   -4.2082   21.7251 N.ar    1  UNL1       -0.2399
      7 C           5.1954   -3.3977   22.9842 C.ar    1  UNL1        0.0983
      8 C           4.3311   -2.1727   23.0299 C.ar    1  UNL1        0.0188
      9 C           4.4933   -1.6347   24.4208 C.2     1  UNL1        0.0527
     10 C           5.4416   -2.5814   25.0950 C.2     1  UNL1        0.1911
     11 N           5.8411   -2.3528   26.5226 N.2     1  UNL1       -0.0723
     12 C           5.2923   -1.1775   27.2760 C.cat   1  UNL1        0.3804
     13 N           4.3441   -0.2308   26.6018 N.pl3   1  UNL1       -0.1554
     14 C           3.6627    1.0003   27.1214 C.2     1  UNL1        0.2413
     15 N           2.8196    1.5647   26.0166 N.2     1  UNL1       -0.2277
     16 C           3.0063    0.6648   24.8488 C.3     1  UNL1        0.2204
     17 C           2.2281    1.0793   23.6353 C.2     1  UNL1        0.2521
     18 O           1.4234    2.3238   23.8669 O.2     1  UNL1       -0.2726
     19 C           3.9446   -0.4595   25.1742 C.3     1  UNL1        0.1964
     20 C           4.5897   -4.6042   19.2523 C.3     1  UNL1        0.4348
     21 F           4.6759   -5.4147   17.9931 F       1  UNL1       -0.1644
     22 F           5.6265   -3.6619   18.7167 F       1  UNL1       -0.1644
     23 F           3.5529   -5.5466   19.7879 F       1  UNL1       -0.1644
     24 N           5.6919   -0.9489   28.7037 N.pl3   1  UNL1       -0.2203
     25 H           5.1158   -0.4141   29.2964 H       1  UNL1        0.2456
     26 C           6.9691   -1.5351   29.2281 C.3     1  UNL1        0.1927
     27 C           6.9370   -2.7915   30.0470 C.ar    1  UNL1        0.0412
     28 C           6.4574   -2.7488   31.4676 C.ar    1  UNL1        0.1391
     29 F           6.0099   -1.4497   32.0693 F       1  UNL1       -0.2044
     30 C           6.4254   -4.0051   32.2865 C.ar    1  UNL1        0.0325
     31 C           6.8729   -5.3042   31.6847 C.ar    1  UNL1        0.0389
     32 C           7.3525   -5.3469   30.2641 C.ar    1  UNL1        0.1346
     33 C           7.3845   -4.0906   29.4452 C.ar    1  UNL1        0.0168
     34 C           7.9035   -4.4391   28.0817 C.3     1  UNL1        0.0766
     35 C           8.1922   -5.9108   28.0579 C.3     1  UNL1        0.2101
     36 O           7.8517   -6.4719   29.4067 O.3     1  UNL1       -0.4754
     37 C           1.1370    1.3741   21.4116 C.3     1  UNL1        0.1603
     38 C           1.0382    0.9916   18.4378 C.3     1  UNL1        0.0740
     39 C           1.0876    1.1829   19.9247 C.3     1  UNL1        0.2820
     40 F           2.2230    2.1495   19.7626 F       1  UNL1       -0.2025
     41 F          -0.0479    0.2162   20.0867 F       1  UNL1       -0.2025
@<TRIPOS>BOND
     1    38    39    1
     2    39    40    1
     3    39    41    1
     4    39    37    1
     5    37     1    1
     6     1     2    1
     7     2     3    1
     8     3     4   ar
     9     4     5   ar
    10     5    20    1
    11    20    21    1
    12    20    22    1
    13    20    23    1
    14     5     6   ar
    15     6     7   ar
    16     7     8   ar
    17     8     9    1
    18     9    10    2
    19    10    11    1
    20    11    12    2
    21    12    24    1
    22    24    26    1
    23    26    27    1
    24    27    28   ar
    25    28    29    1
    26    28    30   ar
    27    30    31   ar
    28    31    32   ar
    29    32    33   ar
    30    33    34    1
    31    34    35    1
    32    35    36    1
    33    12    13    1
    34    13    14    1
    35    14    15    2
    36    15    16    1
    37    16    17    1
    38    17    18    2
    39    16    19    1
    40    17     1   am
    41     8     3   ar
    42    19     9    1
    43    33    27   ar
    44    19    13    1
    45    36    32    1
    46    24    25    1
@<TRIPOS>MOLECULE
*****
 41 46 0 0 0
SMALL
GASTEIGER

@<TRIPOS>ATOM
      1 N          -3.2445    3.9693   23.6273 N.am    1  UNL1       -0.2684
      2 C          -2.5890    3.4260   24.8622 C.3     1  UNL1        0.1205
      3 C          -1.2981    2.7201   25.1547 C.ar    1  UNL1        0.0005
      4 C          -1.3153    2.4770   26.6348 C.ar    1  UNL1        0.0205
      5 C          -0.1627    1.7791   27.2936 C.ar    1  UNL1        0.1524
      6 N           1.0073    1.3242   26.4724 N.ar    1  UNL1       -0.2399
      7 C           1.0245    1.5673   24.9924 C.ar    1  UNL1        0.0983
      8 C          -0.1281    2.2653   24.3335 C.ar    1  UNL1        0.0188
      9 C           0.2356    2.3279   22.8796 C.2     1  UNL1        0.0527
     10 C           1.5765    1.6623   22.7859 C.2     1  UNL1        0.1911
     11 N           2.2619    1.5401   21.4573 N.2     1  UNL1       -0.0723
     12 C           1.6064    2.0834   20.2224 C.cat   1  UNL1        0.3804
     13 N           0.2654    2.7490   20.3161 N.pl3   1  UNL1       -0.1554
     14 C          -0.5924    3.3661   19.2515 C.2     1  UNL1        0.2413
     15 N          -1.8379    3.8880   19.9044 N.2     1  UNL1       -0.2277
     16 C          -1.7109    3.5771   21.3521 C.3     1  UNL1        0.2204
     17 C          -2.8808    4.0319   22.1733 C.2     1  UNL1        0.2521
     18 O          -3.9342    4.7079   21.3467 O.2     1  UNL1       -0.2726
     19 C          -0.4200    2.8712   21.6447 C.3     1  UNL1        0.1964
     20 C          -0.1799    1.5359   28.7737 C.3     1  UNL1        0.4348
     21 F          -0.1971    1.2927   30.2537 F       1  UNL1       -0.1644
     22 F          -1.3208    0.5773   28.6029 F       1  UNL1       -0.1644
     23 F           0.9611    2.4945   28.9445 F       1  UNL1       -0.1644
     24 N           2.2918    1.9612   18.8937 N.pl3   1  UNL1       -0.2203
     25 H           2.7067    2.7520   18.4792 H       1  UNL1        0.2456
     26 C           2.3452    0.6341   18.1966 C.3     1  UNL1        0.1927
     27 C           3.3840   -0.3759   18.5849 C.ar    1  UNL1        0.0412
     28 C           3.0314   -1.4916   19.5234 C.ar    1  UNL1        0.1391
     29 F           1.6399   -1.5973   20.0737 F       1  UNL1       -0.2044
     30 C           4.0702   -2.5016   19.9118 C.ar    1  UNL1        0.0325
     31 C           5.4616   -2.3958   19.3616 C.ar    1  UNL1        0.0389
     32 C           5.8142   -1.2801   18.4230 C.ar    1  UNL1        0.1346
     33 C           4.7754   -0.2701   18.0347 C.ar    1  UNL1        0.0168
     34 C           5.4121    0.7126   17.0973 C.3     1  UNL1        0.0766
     35 C           6.8443    0.3101   16.9062 C.3     1  UNL1        0.2101
     36 O           7.0929   -0.9215   17.7256 O.3     1  UNL1       -0.4754
     37 C          -4.5763    4.5974   23.9134 C.3     1  UNL1        0.1603
     38 C          -5.3830    5.1800   26.7435 C.3     1  UNL1        0.0740
     39 C          -4.9796    4.8888   25.3284 C.3     1  UNL1        0.2820
     40 F          -5.7370    3.5951   25.3788 F       1  UNL1       -0.2025
     41 F          -4.2222    6.1825   25.2781 F       1  UNL1       -0.2025
@<TRIPOS>BOND
     1    38    39    1
     2    39    40    1
     3    39    41    1
     4    39    37    1
     5    37     1    1
     6     1     2    1
     7     2     3    1
     8     3     4   ar
     9     4     5   ar
    10     5    20    1
    11    20    21    1
    12    20    22    1
    13    20    23    1
    14     5     6   ar
    15     6     7   ar
    16     7     8   ar
    17     8     9    1
    18     9    10    2
    19    10    11    1
    20    11    12    2
    21    12    24    1
    22    24    26    1
    23    26    27    1
    24    27    28   ar
    25    28    29    1
    26    28    30   ar
    27    30    31   ar
    28    31    32   ar
    29    32    33   ar
    30    33    34    1
    31    34    35    1
    32    35    36    1
    33    12    13    1
    34    13    14    1
    35    14    15    2
    36    15    16    1
    37    16    17    1
    38    17    18    2
    39    16    19    1
    40    17     1   am
    41     8     3   ar
    42    19     9    1
    43    33    27   ar
    44    19    13    1
    45    36    32    1
    46    24    25    1
@<TRIPOS>MOLECULE
*****
 41 46 0 0 0
SMALL
GASTEIGER

@<TRIPOS>ATOM
      1 N          -2.8934    3.7200   23.6767 N.am    1  UNL1       -0.2684
      2 C          -2.2845    3.2225   24.9541 C.3     1  UNL1        0.1205
      3 C          -1.0262    2.4895   25.3143 C.ar    1  UNL1        0.0005
      4 C          -1.0841    2.3281   26.8045 C.ar    1  UNL1        0.0205
      5 C           0.0285    1.6278   27.5267 C.ar    1  UNL1        0.1524
      6 N           1.1989    1.0889   26.7588 N.ar    1  UNL1       -0.2399
      7 C           1.2568    1.2503   25.2687 C.ar    1  UNL1        0.0983
      8 C           0.1442    1.9506   24.5464 C.ar    1  UNL1        0.0188
      9 C           0.5412    1.9213   23.1002 C.2     1  UNL1        0.0527
     10 C           1.8593    1.2059   23.0738 C.2     1  UNL1        0.1911
     11 N           2.5684    0.9879   21.7702 N.2     1  UNL1       -0.0723
     12 C           1.9595    1.4854   20.4928 C.cat   1  UNL1        0.3804
     13 N           0.6414    2.2009   20.5191 N.pl3   1  UNL1       -0.1554
     14 C          -0.1707    2.7884   19.4031 C.2     1  UNL1        0.2413
     15 N          -1.4106    3.3876   19.9977 N.2     1  UNL1       -0.2277
     16 C          -1.3260    3.1518   21.4626 C.3     1  UNL1        0.2204
     17 C          -2.4964    3.6907   22.2305 C.2     1  UNL1        0.2521
     18 O          -3.5069    4.3566   21.3442 O.2     1  UNL1       -0.2726
     19 C          -0.0677    2.4189   21.8228 C.3     1  UNL1        0.1964
     20 C          -0.0293    1.4664   29.0169 C.3     1  UNL1        0.4348
     21 F          -0.0872    1.3049   30.5071 F       1  UNL1       -0.1644
     22 F          -1.2397    0.5918   28.8752 F       1  UNL1       -0.1644
     23 F           1.1810    2.3409   29.1587 F       1  UNL1       -0.1644
     24 N           2.6686    1.2675   19.1891 N.pl3   1  UNL1       -0.2203
     25 H           3.1032    2.0238   18.7326 H       1  UNL1        0.2456
     26 C           2.7157   -0.1029   18.5809 C.3     1  UNL1        0.1927
     27 C           4.0319   -0.8004   18.4046 C.ar    1  UNL1        0.0412
     28 C           5.2011   -0.0606   17.8252 C.ar    1  UNL1        0.1391
     29 F           5.0541    1.3768   17.4222 F       1  UNL1       -0.2044
     30 C           6.5173   -0.7580   17.6489 C.ar    1  UNL1        0.0325
     31 C           6.6643   -2.1953   18.0519 C.ar    1  UNL1        0.0389
     32 C           5.4951   -2.9352   18.6313 C.ar    1  UNL1        0.1346
     33 C           4.1789   -2.2377   18.8076 C.ar    1  UNL1        0.0168
     34 C           3.2110   -3.2177   19.4015 C.3     1  UNL1        0.0766
     35 C           3.9289   -4.5207   19.5922 C.3     1  UNL1        0.2101
     36 O           5.3406   -4.3462   19.1162 O.3     1  UNL1       -0.4754
     37 C          -4.2078    4.4083   23.8974 C.3     1  UNL1        0.1603
     38 C          -5.1056    5.0702   26.6822 C.3     1  UNL1        0.0740
     39 C          -4.6566    4.7392   25.2898 C.3     1  UNL1        0.2820
     40 F          -5.4701    3.4796   25.3270 F       1  UNL1       -0.2025
     41 F          -3.8432    5.9990   25.2526 F       1  UNL1       -0.2025
@<TRIPOS>BOND
     1    38    39    1
     2    39    40    1
     3    39    41    1
     4    39    37    1
     5    37     1    1
     6     1     2    1
     7     2     3    1
     8     3     4   ar
     9     4     5   ar
    10     5    20    1
    11    20    21    1
    12    20    22    1
    13    20    23    1
    14     5     6   ar
    15     6     7   ar
    16     7     8   ar
    17     8     9    1
    18     9    10    2
    19    10    11    1
    20    11    12    2
    21    12    24    1
    22    24    26    1
    23    26    27    1
    24    27    28   ar
    25    28    29    1
    26    28    30   ar
    27    30    31   ar
    28    31    32   ar
    29    32    33   ar
    30    33    34    1
    31    34    35    1
    32    35    36    1
    33    12    13    1
    34    13    14    1
    35    14    15    2
    36    15    16    1
    37    16    17    1
    38    17    18    2
    39    16    19    1
    40    17     1   am
    41     8     3   ar
    42    19     9    1
    43    33    27   ar
    44    19    13    1
    45    36    32    1
    46    24    25    1
@<TRIPOS>MOLECULE
*****
 41 46 0 0 0
SMALL
GASTEIGER

@<TRIPOS>ATOM
      1 N           2.6181   -0.5367   19.7627 N.am    1  UNL1       -0.2684
      2 C           3.4002   -1.1018   20.9112 C.3     1  UNL1        0.1205
      3 C           3.3816   -0.9180   22.3998 C.ar    1  UNL1        0.0005
      4 C           4.4632   -1.8200   22.9159 C.ar    1  UNL1        0.0205
      5 C           4.7362   -1.8968   24.3888 C.ar    1  UNL1        0.1524
      6 N           3.9277   -1.0717   25.3456 N.ar    1  UNL1       -0.2399
      7 C           2.8461   -0.1697   24.8294 C.ar    1  UNL1        0.0983
      8 C           2.5730   -0.0928   23.3565 C.ar    1  UNL1        0.0188
      9 C           1.4482    0.8903   23.2210 C.2     1  UNL1        0.0527
     10 C           1.1390    1.3223   24.6238 C.2     1  UNL1        0.1911
     11 N           0.0478    2.3194   24.8781 N.2     1  UNL1       -0.0723
     12 C          -0.7344    2.8846   23.7297 C.cat   1  UNL1        0.3804
     13 N          -0.4253    2.4526   22.3269 N.pl3   1  UNL1       -0.1554
     14 C          -1.0470    2.8579   21.0234 C.2     1  UNL1        0.2413
     15 N          -0.3475    2.1136   19.9249 N.2     1  UNL1       -0.2277
     16 C           0.6847    1.2716   20.5840 C.3     1  UNL1        0.2204
     17 C           1.4932    0.4464   19.6272 C.2     1  UNL1        0.2521
     18 O           1.0800    0.6528   18.2001 O.2     1  UNL1       -0.2726
     19 C           0.6660    1.4554   22.0726 C.3     1  UNL1        0.1964
     20 C           5.8179   -2.7989   24.9051 C.3     1  UNL1        0.4348
     21 F           6.8995   -3.7008   25.4213 F       1  UNL1       -0.1644
     22 F           6.1772   -1.7751   25.9408 F       1  UNL1       -0.1644
     23 F           5.4586   -3.8226   23.8693 F       1  UNL1       -0.1644
     24 N          -1.8257    3.8818   23.9841 N.pl3   1  UNL1       -0.2203
     25 H          -1.7725    4.7815   23.5880 H       1  UNL1        0.2456
     26 C          -2.9981    3.5081   24.8420 C.3     1  UNL1        0.1927
     27 C          -4.3793    3.9497   24.4581 C.ar    1  UNL1        0.0412
     28 C          -4.9238    3.6148   23.1012 C.ar    1  UNL1        0.1391
     29 F          -4.0870    2.8382   22.1280 F       1  UNL1       -0.2044
     30 C          -6.3050    4.0563   22.7173 C.ar    1  UNL1        0.0325
     31 C          -7.1417    4.8327   23.6904 C.ar    1  UNL1        0.0389
     32 C          -6.5972    5.1677   25.0474 C.ar    1  UNL1        0.1346
     33 C          -5.2160    4.7262   25.4313 C.ar    1  UNL1        0.0168
     34 C          -4.9497    5.2000   26.8293 C.3     1  UNL1        0.0766
     35 C          -6.1662    5.9344   27.3095 C.3     1  UNL1        0.2101
     36 O          -7.1844    5.9144   26.2082 O.3     1  UNL1       -0.4754
     37 C           3.0658   -1.0827   18.4394 C.3     1  UNL1        0.1603
     38 C           5.5169   -2.8049   18.2790 C.3     1  UNL1        0.0740
     39 C           4.2913   -1.9438   18.3592 C.3     1  UNL1        0.2820
     40 F           5.1308   -0.7259   18.1108 F       1  UNL1       -0.2025
     41 F           3.4518   -3.1619   18.6076 F       1  UNL1       -0.2025
@<TRIPOS>BOND
     1    38    39    1
     2    39    40    1
     3    39    41    1
     4    39    37    1
     5    37     1    1
     6     1     2    1
     7     2     3    1
     8     3     4   ar
     9     4     5   ar
    10     5    20    1
    11    20    21    1
    12    20    22    1
    13    20    23    1
    14     5     6   ar
    15     6     7   ar
    16     7     8   ar
    17     8     9    1
    18     9    10    2
    19    10    11    1
    20    11    12    2
    21    12    24    1
    22    24    26    1
    23    26    27    1
    24    27    28   ar
    25    28    29    1
    26    28    30   ar
    27    30    31   ar
    28    31    32   ar
    29    32    33   ar
    30    33    34    1
    31    34    35    1
    32    35    36    1
    33    12    13    1
    34    13    14    1
    35    14    15    2
    36    15    16    1
    37    16    17    1
    38    17    18    2
    39    16    19    1
    40    17     1   am
    41     8     3   ar
    42    19     9    1
    43    33    27   ar
    44    19    13    1
    45    36    32    1
    46    24    25    1
@<TRIPOS>MOLECULE
*****
 41 46 0 0 0
SMALL
GASTEIGER

@<TRIPOS>ATOM
      1 N           3.6981   -0.9746   19.7662 N.am    1  UNL1       -0.2684
      2 C           4.0161   -1.1926   21.2158 C.3     1  UNL1        0.1205
      3 C           3.4531   -0.6908   22.5124 C.ar    1  UNL1        0.0005
      4 C           4.2857   -1.3435   23.5757 C.ar    1  UNL1        0.0205
      5 C           4.0039   -1.0685   25.0231 C.ar    1  UNL1        0.1524
      6 N           2.8896   -0.1407   25.4071 N.ar    1  UNL1       -0.2399
      7 C           2.0570    0.5120   24.3438 C.ar    1  UNL1        0.0983
      8 C           2.3387    0.2369   22.8965 C.ar    1  UNL1        0.0188
      9 C           1.3258    1.0472   22.1430 C.2     1  UNL1        0.0527
     10 C           0.5198    1.7416   23.2004 C.2     1  UNL1        0.1911
     11 N          -0.6043    2.6540   22.8082 N.2     1  UNL1       -0.0723
     12 C          -0.9223    2.8721   21.3586 C.cat   1  UNL1        0.3804
     13 N          -0.1163    2.1777   20.3012 N.pl3   1  UNL1       -0.1554
     14 C          -0.2260    2.2230   18.8059 C.2     1  UNL1        0.2413
     15 N           0.8373    1.3317   18.2359 N.2     1  UNL1       -0.2277
     16 C           1.5708    0.7634   19.3968 C.3     1  UNL1        0.2204
     17 C           2.6852   -0.1644   19.0127 C.2     1  UNL1        0.2521
     18 O           2.8177   -0.3179   17.5265 O.2     1  UNL1       -0.2726
     19 C           1.0077    1.2652   20.6934 C.3     1  UNL1        0.1964
     20 C           4.8366   -1.7212   26.0865 C.3     1  UNL1        0.4348
     21 F           5.6692   -2.3739   27.1498 F       1  UNL1       -0.1644
     22 F           6.0133   -1.7352   25.1564 F       1  UNL1       -0.1644
     23 F           3.6598   -1.7072   27.0165 F       1  UNL1       -0.1644
     24 N          -2.0465    3.7846   20.9665 N.pl3   1  UNL1       -0.2203
     25 H          -1.9113    4.7598   20.9653 H       1  UNL1        0.2456
     26 C          -3.3764    3.2113   20.5761 C.3     1  UNL1        0.1927
     27 C          -4.6410    3.8285   21.0959 C.ar    1  UNL1        0.0412
     28 C          -5.6207    4.4465   20.1430 C.ar    1  UNL1        0.1391
     29 F          -5.3360    4.4473   18.6702 F       1  UNL1       -0.2044
     30 C          -6.8852    5.0636   20.6627 C.ar    1  UNL1        0.0325
     31 C          -7.1699    5.0628   22.1354 C.ar    1  UNL1        0.0389
     32 C          -6.1901    4.4447   23.0884 C.ar    1  UNL1        0.1346
     33 C          -4.9257    3.8276   22.5686 C.ar    1  UNL1        0.0168
     34 C          -4.1533    3.2971   23.7399 C.3     1  UNL1        0.0766
     35 C          -4.9404    3.5863   24.9835 C.3     1  UNL1        0.2101
     36 O          -6.1992    4.2956   24.5809 O.3     1  UNL1       -0.4754
     37 C           4.6059   -1.7483   18.8566 C.3     1  UNL1        0.1603
     38 C           4.6603   -4.7449   18.9862 C.3     1  UNL1        0.0740
     39 C           4.6331   -3.2466   18.9214 C.3     1  UNL1        0.2820
     40 F           3.1340   -3.2756   18.8790 F       1  UNL1       -0.2025
     41 F           6.1322   -3.2176   18.9638 F       1  UNL1       -0.2025
@<TRIPOS>BOND
     1    38    39    1
     2    39    40    1
     3    39    41    1
     4    39    37    1
     5    37     1    1
     6     1     2    1
     7     2     3    1
     8     3     4   ar
     9     4     5   ar
    10     5    20    1
    11    20    21    1
    12    20    22    1
    13    20    23    1
    14     5     6   ar
    15     6     7   ar
    16     7     8   ar
    17     8     9    1
    18     9    10    2
    19    10    11    1
    20    11    12    2
    21    12    24    1
    22    24    26    1
    23    26    27    1
    24    27    28   ar
    25    28    29    1
    26    28    30   ar
    27    30    31   ar
    28    31    32   ar
    29    32    33   ar
    30    33    34    1
    31    34    35    1
    32    35    36    1
    33    12    13    1
    34    13    14    1
    35    14    15    2
    36    15    16    1
    37    16    17    1
    38    17    18    2
    39    16    19    1
    40    17     1   am
    41     8     3   ar
    42    19     9    1
    43    33    27   ar
    44    19    13    1
    45    36    32    1
    46    24    25    1
@<TRIPOS>MOLECULE
*****
 41 46 0 0 0
SMALL
GASTEIGER

@<TRIPOS>ATOM
      1 N           3.5323   -2.1449   20.5533 N.am    1  UNL1       -0.2684
      2 C           4.4553   -2.9230   21.4435 C.3     1  UNL1        0.1205
      3 C           4.9373   -2.7791   22.8567 C.ar    1  UNL1        0.0005
      4 C           5.8574   -3.9437   23.0735 C.ar    1  UNL1        0.0205
      5 C           6.5361   -4.1268   24.3986 C.ar    1  UNL1        0.1524
      6 N           6.2946   -3.1453   25.5068 N.ar    1  UNL1       -0.2399
      7 C           5.3745   -1.9807   25.2901 C.ar    1  UNL1        0.0983
      8 C           4.6959   -1.7976   23.9650 C.ar    1  UNL1        0.0188
      9 C           3.8724   -0.5533   24.1192 C.2     1  UNL1        0.0527
     10 C           4.1248   -0.0923   25.5241 C.2     1  UNL1        0.1911
     11 N           3.4541    1.1467   26.0387 N.2     1  UNL1       -0.0723
     12 C           2.5311    1.9248   25.1485 C.cat   1  UNL1        0.3804
     13 N           2.2786    1.4639   23.7436 N.pl3   1  UNL1       -0.1554
     14 C           1.4150    2.0500   22.6663 C.2     1  UNL1        0.2413
     15 N           1.5339    1.1785   21.4513 N.2     1  UNL1       -0.2277
     16 C           2.4673    0.0810   21.8157 C.3     1  UNL1        0.2204
     17 C           2.7088   -0.9006   20.7075 C.2     1  UNL1        0.2521
     18 O           1.9484   -0.5573   19.4609 O.2     1  UNL1       -0.2726
     19 C           2.9493    0.2248   23.2290 C.3     1  UNL1        0.1964
     20 C           7.4563   -5.2914   24.6154 C.3     1  UNL1        0.4348
     21 F           8.3764   -6.4560   24.8322 F       1  UNL1       -0.1644
     22 F           8.1403   -4.9932   23.3142 F       1  UNL1       -0.1644
     23 F           6.7723   -5.5896   25.9166 F       1  UNL1       -0.1644
     24 N           1.8604    3.1639   25.6633 N.pl3   1  UNL1       -0.2203
     25 H           1.6740    3.9128   25.0520 H       1  UNL1        0.2456
     26 C           1.4738    3.2619   27.1092 C.3     1  UNL1        0.1927
     27 C           0.7650    2.1199   27.7752 C.ar    1  UNL1        0.0412
     28 C          -0.6302    1.7583   27.3595 C.ar    1  UNL1        0.1391
     29 F          -1.3165    2.5388   26.2778 F       1  UNL1       -0.2044
     30 C          -1.3390    0.6164   28.0254 C.ar    1  UNL1        0.0325
     31 C          -0.6526   -0.1640   29.1070 C.ar    1  UNL1        0.0389
     32 C           0.7425    0.1975   29.5226 C.ar    1  UNL1        0.1346
     33 C           1.4513    1.3395   28.8568 C.ar    1  UNL1        0.0168
     34 C           2.8133    1.4624   29.4732 C.3     1  UNL1        0.0766
     35 C           2.9462    0.3964   30.5200 C.3     1  UNL1        0.2101
     36 O           1.6664   -0.3853   30.5506 O.3     1  UNL1       -0.4754
     37 C           3.4021   -2.7539   19.1887 C.3     1  UNL1        0.1603
     38 C           4.6613   -5.4140   18.6070 C.3     1  UNL1        0.0740
     39 C           4.0316   -4.0839   18.8979 C.3     1  UNL1        0.2820
     40 F           5.2809   -3.3923   18.4386 F       1  UNL1       -0.2025
     41 F           2.7824   -4.7757   19.3571 F       1  UNL1       -0.2025
@<TRIPOS>BOND
     1    38    39    1
     2    39    40    1
     3    39    41    1
     4    39    37    1
     5    37     1    1
     6     1     2    1
     7     2     3    1
     8     3     4   ar
     9     4     5   ar
    10     5    20    1
    11    20    21    1
    12    20    22    1
    13    20    23    1
    14     5     6   ar
    15     6     7   ar
    16     7     8   ar
    17     8     9    1
    18     9    10    2
    19    10    11    1
    20    11    12    2
    21    12    24    1
    22    24    26    1
    23    26    27    1
    24    27    28   ar
    25    28    29    1
    26    28    30   ar
    27    30    31   ar
    28    31    32   ar
    29    32    33   ar
    30    33    34    1
    31    34    35    1
    32    35    36    1
    33    12    13    1
    34    13    14    1
    35    14    15    2
    36    15    16    1
    37    16    17    1
    38    17    18    2
    39    16    19    1
    40    17     1   am
    41     8     3   ar
    42    19     9    1
    43    33    27   ar
    44    19    13    1
    45    36    32    1
    46    24    25    1
@<TRIPOS>MOLECULE
*****
 41 46 0 0 0
SMALL
GASTEIGER

@<TRIPOS>ATOM
      1 N           3.2110   -1.0276   20.0105 N.am    1  UNL1       -0.2684
      2 C           3.9378   -1.5326   21.2216 C.3     1  UNL1        0.1205
      3 C           3.8446   -1.2788   22.6971 C.ar    1  UNL1        0.0005
      4 C           4.9032   -2.1482   23.3082 C.ar    1  UNL1        0.0205
      5 C           5.1034   -2.1535   24.7947 C.ar    1  UNL1        0.1524
      6 N           4.2449   -1.2894   25.6702 N.ar    1  UNL1       -0.2399
      7 C           3.1863   -0.4201   25.0591 C.ar    1  UNL1        0.0983
      8 C           2.9862   -0.4147   23.5725 C.ar    1  UNL1        0.0188
      9 C           1.8652    0.5534   23.3352 C.2     1  UNL1        0.0527
     10 C           1.4851    1.0492   24.6989 C.2     1  UNL1        0.1911
     11 N           0.3783    2.0499   24.8515 N.2     1  UNL1       -0.0723
     12 C          -0.3484    2.5550   23.6404 C.cat   1  UNL1        0.3804
     13 N           0.0316    2.0592   22.2767 N.pl3   1  UNL1       -0.1554
     14 C          -0.5265    2.3983   20.9263 C.2     1  UNL1        0.2413
     15 N           0.2297    1.6077   19.9003 N.2     1  UNL1       -0.2277
     16 C           1.2316    0.8046   20.6486 C.3     1  UNL1        0.2204
     17 C           2.0900   -0.0595   19.7732 C.2     1  UNL1        0.2521
     18 O           1.7471    0.0765   18.3193 O.2     1  UNL1       -0.2726
     19 C           1.1384    1.0585   22.1241 C.3     1  UNL1        0.1964
     20 C           6.1620   -3.0229   25.4059 C.3     1  UNL1        0.4348
     21 F           7.2206   -3.8923   26.0169 F       1  UNL1       -0.1644
     22 F           5.9522   -4.0395   24.3230 F       1  UNL1       -0.1644
     23 F           6.3718   -2.0064   26.4887 F       1  UNL1       -0.1644
     24 N          -1.4553    3.5558   23.7931 N.pl3   1  UNL1       -0.2203
     25 H          -1.4679    4.3652   23.2327 H       1  UNL1        0.2456
     26 C          -2.5429    3.3235   24.7996 C.3     1  UNL1        0.1927
     27 C          -3.9354    3.8091   24.5247 C.ar    1  UNL1        0.0412
     28 C          -4.7754    4.3502   25.6435 C.ar    1  UNL1        0.1391
     29 F          -4.2231    4.4056   27.0370 F       1  UNL1       -0.2044
     30 C          -6.1678    4.8357   25.3687 C.ar    1  UNL1        0.0325
     31 C          -6.7200    4.7803   23.9752 C.ar    1  UNL1        0.0389
     32 C          -5.8800    4.2392   22.8565 C.ar    1  UNL1        0.1346
     33 C          -4.4876    3.7537   23.1312 C.ar    1  UNL1        0.0168
     34 C          -3.8994    3.2761   21.8367 C.3     1  UNL1        0.0766
     35 C          -4.9281    3.4665   20.7619 C.3     1  UNL1        0.2101
     36 O          -6.1522    4.0618   21.3921 O.3     1  UNL1       -0.4754
     37 C           3.7260   -1.6326   18.7382 C.3     1  UNL1        0.1603
     38 C           4.7634   -4.4475   18.7282 C.3     1  UNL1        0.0740
     39 C           4.2447   -3.0400   18.7332 C.3     1  UNL1        0.2820
     40 F           2.8821   -3.5435   19.1067 F       1  UNL1       -0.2025
     41 F           5.6075   -2.5365   18.3598 F       1  UNL1       -0.2025
@<TRIPOS>BOND
     1    38    39    1
     2    39    40    1
     3    39    41    1
     4    39    37    1
     5    37     1    1
     6     1     2    1
     7     2     3    1
     8     3     4   ar
     9     4     5   ar
    10     5    20    1
    11    20    21    1
    12    20    22    1
    13    20    23    1
    14     5     6   ar
    15     6     7   ar
    16     7     8   ar
    17     8     9    1
    18     9    10    2
    19    10    11    1
    20    11    12    2
    21    12    24    1
    22    24    26    1
    23    26    27    1
    24    27    28   ar
    25    28    29    1
    26    28    30   ar
    27    30    31   ar
    28    31    32   ar
    29    32    33   ar
    30    33    34    1
    31    34    35    1
    32    35    36    1
    33    12    13    1
    34    13    14    1
    35    14    15    2
    36    15    16    1
    37    16    17    1
    38    17    18    2
    39    16    19    1
    40    17     1   am
    41     8     3   ar
    42    19     9    1
    43    33    27   ar
    44    19    13    1
    45    36    32    1
    46    24    25    1
