@<TRIPOS>MOLECULE
*****
 39 43 0 0 0
SMALL
GASTEIGER

@<TRIPOS>ATOM
      1 C           4.0203    0.0764   24.5801 C.ar    1  UNL1        0.1334
      2 C           3.8241   -0.9131   23.4700 C.ar    1  UNL1        0.0488
      3 C           4.6637   -2.1548   23.4150 C.ar    1  UNL1        0.0509
      4 C           5.6996   -2.4071   24.4701 C.ar    1  UNL1        0.0562
      5 C           5.8959   -1.4175   25.5801 C.ar    1  UNL1        0.1035
      6 N           5.0563   -0.1758   25.6351 N.ar    1  UNL1       -0.2289
      7 C           6.5393   -3.6488   24.4150 C.ar    1  UNL1        0.1134
      8 N           7.2672   -4.1683   23.2108 N.ar    1  UNL1       -0.2382
      9 C           7.9763   -5.4297   23.6061 C.ar    1  UNL1        0.0879
     10 C           8.8483   -6.3750   22.8341 C.ar    1  UNL1        0.0196
     11 C           9.4306   -7.5804   23.5108 C.ar    1  UNL1        0.0016
     12 C           9.1409   -7.8405   24.9593 C.ar    1  UNL1        0.0006
     13 C           8.2689   -6.8951   25.7313 C.ar    1  UNL1        0.0080
     14 C           7.6866   -5.6897   25.0546 C.ar    1  UNL1        0.0485
     15 S           6.7985   -4.5891   25.5546 S.2     1  UNL1       -0.0664
     16 N           3.1807    1.3182   24.6351 N.pl3   1  UNL1       -0.2978
     17 H           3.4251    2.1021   24.0920 H       1  UNL1        0.1536
     18 C          -1.7128    2.8476   25.4812 C.3     1  UNL1        0.0521
     19 C          -0.4781    2.1302   25.9406 C.ar    1  UNL1        0.0602
     20 C           0.7340    2.0829   25.0582 C.ar    1  UNL1        0.0294
     21 C           1.9687    1.3655   25.5176 C.ar    1  UNL1        0.0517
     22 C           1.9913    0.6955   26.8594 C.ar    1  UNL1        0.0294
     23 C           0.7792    0.7429   27.7419 C.ar    1  UNL1        0.0602
     24 C           0.8018    0.0729   29.0837 C.3     1  UNL1        0.0521
     25 N          -0.4555    1.4602   27.2825 N.ar    1  UNL1       -0.2539
     26 N           4.4674   -3.1444   22.3049 N.pl3   1  UNL1       -0.3318
     27 H           4.2289   -4.0766   22.5129 H       1  UNL1        0.1468
     28 C           4.6344   -2.7135   20.8779 C.3     1  UNL1        0.0988
     29 C           3.6555   -1.9026   20.0814 C.3     1  UNL1        0.0270
     30 C           4.2257   -1.7058   18.7080 C.3     1  UNL1        0.0604
     31 C           5.5570   -2.3950   18.6557 C.3     1  UNL1        0.1412
     32 O           6.4746   -2.4515   17.4705 O.3     1  UNL1       -0.3818
     33 C           5.8096   -3.0178   19.9967 C.3     1  UNL1        0.1549
     34 O           7.0241   -3.8064   20.3879 O.3     1  UNL1       -0.3803
     35 H           6.0756   -1.9693   16.7294 H       1  UNL1        0.2104
     36 H           7.6335   -3.8563   19.6349 H       1  UNL1        0.2105
     37 C           3.5783   -0.9521   17.5843 C.3     1  UNL1        0.1396
     38 O           3.8641   -1.3342   16.1622 O.3     1  UNL1       -0.3819
     39 H           4.7962   -1.1568   15.9608 H       1  UNL1        0.2104
@<TRIPOS>BOND
     1    18    19    1
     2    19    20   ar
     3    20    21   ar
     4    21    16    1
     5    16     1    1
     6     1     2   ar
     7     2     3   ar
     8     3    26    1
     9    28    26    1
    10    28    29    1
    11    29    30    1
    12    30    37    1
    13    37    38    1
    14    30    31    1
    15    31    32    1
    16    31    33    1
    17    33    34    1
    18     3     4   ar
    19     4     7    1
    20     7     8   ar
    21     8     9   ar
    22     9    10   ar
    23    10    11   ar
    24    11    12   ar
    25    12    13   ar
    26    13    14   ar
    27    14    15   ar
    28     4     5   ar
    29     5     6   ar
    30    21    22   ar
    31    22    23   ar
    32    23    24    1
    33    23    25   ar
    34    25    19   ar
    35     6     1   ar
    36    33    28    1
    37    15     7   ar
    38    14     9   ar
    39    16    17    1
    40    26    27    1
    41    38    39    1
    42    32    35    1
    43    34    36    1
@<TRIPOS>MOLECULE
*****
 39 43 0 0 0
SMALL
GASTEIGER

@<TRIPOS>ATOM
      1 C           4.0306    0.3215   27.0144 C.ar    1  UNL1        0.1334
      2 C           5.1151   -0.2422   27.8837 C.ar    1  UNL1        0.0488
      3 C           5.8635   -1.4676   27.4496 C.ar    1  UNL1        0.0509
      4 C           5.5273   -2.1292   26.1460 C.ar    1  UNL1        0.0562
      5 C           4.4427   -1.5654   25.2767 C.ar    1  UNL1        0.1035
      6 N           3.6944   -0.3401   25.7108 N.ar    1  UNL1       -0.2289
      7 C           6.2756   -3.3545   25.7119 C.ar    1  UNL1        0.1134
      8 N           6.5834   -4.5485   26.5660 N.ar    1  UNL1       -0.2382
      9 C           7.3456   -5.5329   25.7294 C.ar    1  UNL1        0.0879
     10 C           7.9121   -6.8869   26.0390 C.ar    1  UNL1        0.0196
     11 C           8.6418   -7.6552   24.9774 C.ar    1  UNL1        0.0016
     12 C           8.8051   -7.0696   23.6061 C.ar    1  UNL1        0.0006
     13 C           8.2387   -5.7156   23.2965 C.ar    1  UNL1        0.0080
     14 C           7.5089   -4.9473   24.3581 C.ar    1  UNL1        0.0485
     15 S           6.8476   -3.6010   24.3473 S.2     1  UNL1       -0.0664
     16 N           3.2822    1.5469   27.4485 N.pl3   1  UNL1       -0.2978
     17 H           3.5383    2.4302   27.0974 H       1  UNL1        0.1536
     18 C           1.0320    2.8861   31.9367 C.3     1  UNL1        0.0521
     19 C           1.0186    2.0959   30.6617 C.ar    1  UNL1        0.0602
     20 C           2.1571    2.2165   29.6926 C.ar    1  UNL1        0.0294
     21 C           2.1437    1.4263   28.4177 C.ar    1  UNL1        0.0517
     22 C           0.9918    0.5155   28.1119 C.ar    1  UNL1        0.0294
     23 C          -0.1468    0.3949   29.0811 C.ar    1  UNL1        0.0602
     24 C          -1.2987   -0.5159   28.7753 C.3     1  UNL1        0.0521
     25 N          -0.1333    1.1851   30.3560 N.ar    1  UNL1       -0.2539
     26 N           6.9481   -2.0313   28.3190 N.pl3   1  UNL1       -0.3318
     27 H           7.8781   -2.0493   27.9965 H       1  UNL1        0.1468
     28 C           6.6158   -2.5676   29.6798 C.3     1  UNL1        0.0988
     29 C           5.9066   -1.8230   30.7719 C.3     1  UNL1        0.0270
     30 C           5.7868   -2.7379   31.9545 C.3     1  UNL1        0.0604
     31 C           6.4219   -4.0480   31.5934 C.3     1  UNL1        0.1412
     32 O           6.5262   -5.2519   32.4820 O.3     1  UNL1       -0.3818
     33 C           6.9342   -3.9427   30.1875 C.3     1  UNL1        0.1549
     34 O           7.6408   -5.0230   29.4235 O.3     1  UNL1       -0.3803
     35 H           6.1164   -5.0574   33.3394 H       1  UNL1        0.2104
     36 H           7.7201   -5.8136   29.9799 H       1  UNL1        0.2105
     37 C           5.1446   -2.4017   33.2678 C.3     1  UNL1        0.1396
     38 O           3.7358   -1.8881   33.3041 O.3     1  UNL1       -0.3819
     39 H           3.6978   -1.0179   32.8774 H       1  UNL1        0.2104
@<TRIPOS>BOND
     1    18    19    1
     2    19    20   ar
     3    20    21   ar
     4    21    16    1
     5    16     1    1
     6     1     2   ar
     7     2     3   ar
     8     3    26    1
     9    28    26    1
    10    28    29    1
    11    29    30    1
    12    30    37    1
    13    37    38    1
    14    30    31    1
    15    31    32    1
    16    31    33    1
    17    33    34    1
    18     3     4   ar
    19     4     7    1
    20     7     8   ar
    21     8     9   ar
    22     9    10   ar
    23    10    11   ar
    24    11    12   ar
    25    12    13   ar
    26    13    14   ar
    27    14    15   ar
    28     4     5   ar
    29     5     6   ar
    30    21    22   ar
    31    22    23   ar
    32    23    24    1
    33    23    25   ar
    34    25    19   ar
    35     6     1   ar
    36    33    28    1
    37    15     7   ar
    38    14     9   ar
    39    16    17    1
    40    26    27    1
    41    38    39    1
    42    32    35    1
    43    34    36    1
@<TRIPOS>MOLECULE
*****
 39 43 0 0 0
SMALL
GASTEIGER

@<TRIPOS>ATOM
      1 C           5.8888    0.7844   35.8803 C.ar    1  UNL1        0.1334
      2 C           4.7659    0.1637   35.1032 C.ar    1  UNL1        0.0488
      3 C           5.0658   -0.7523   33.9539 C.ar    1  UNL1        0.0509
      4 C           6.4885   -1.0476   33.5816 C.ar    1  UNL1        0.0562
      5 C           7.6114   -0.4269   34.3586 C.ar    1  UNL1        0.1035
      6 N           7.3115    0.4891   35.5079 N.ar    1  UNL1       -0.2289
      7 C           6.7884   -1.9636   32.4322 C.ar    1  UNL1        0.1134
      8 N           6.4430   -3.4212   32.3531 N.ar    1  UNL1       -0.2382
      9 C           6.9274   -3.9413   31.0322 C.ar    1  UNL1        0.0879
     10 C           6.8648   -5.3026   30.4055 C.ar    1  UNL1        0.0196
     11 C           7.4468   -5.5279   29.0415 C.ar    1  UNL1        0.0016
     12 C           8.0915   -4.3917   28.3042 C.ar    1  UNL1        0.0006
     13 C           8.1542   -3.0304   28.9309 C.ar    1  UNL1        0.0080
     14 C           7.5722   -2.8052   30.2949 C.ar    1  UNL1        0.0485
     15 S           7.4862   -1.5829   31.1602 S.2     1  UNL1       -0.0664
     16 N           5.5889    1.7004   37.0296 N.pl3   1  UNL1       -0.2978
     17 H           6.3258    2.1193   37.5305 H       1  UNL1        0.1536
     18 C           1.3805    4.7409   36.8182 C.3     1  UNL1        0.0521
     19 C           2.0622    3.4986   37.3101 C.ar    1  UNL1        0.0602
     20 C           3.4847    3.2207   36.9239 C.ar    1  UNL1        0.0294
     21 C           4.1664    1.9783   37.4158 C.ar    1  UNL1        0.0517
     22 C           3.4256    1.0140   38.2939 C.ar    1  UNL1        0.0294
     23 C           2.0030    1.2919   38.6801 C.ar    1  UNL1        0.0602
     24 C           1.2621    0.3276   39.5583 C.3     1  UNL1        0.0521
     25 N           1.3214    2.5342   38.1882 N.ar    1  UNL1       -0.2539
     26 N           3.9429   -1.3731   33.1768 N.pl3   1  UNL1       -0.3318
     27 H           3.5476   -2.2233   33.4769 H       1  UNL1        0.1468
     28 C           3.4221   -0.6984   31.9425 C.3     1  UNL1        0.0988
     29 C           3.6081   -1.1746   30.5323 C.3     1  UNL1        0.0270
     30 C           2.9249   -0.1995   29.6199 C.3     1  UNL1        0.0604
     31 C           2.3167    0.8794   30.4662 C.3     1  UNL1        0.1412
     32 O           1.5380    2.0594   29.9650 O.3     1  UNL1       -0.3818
     33 C           2.6240    0.5711   31.9016 C.3     1  UNL1        0.1549
     34 O           2.2065    1.3886   33.0879 O.3     1  UNL1       -0.3803
     35 H           1.4835    2.0234   28.9972 H       1  UNL1        0.2104
     36 H           1.7000    2.1593   32.7873 H       1  UNL1        0.2105
     37 C           2.8612   -0.2878   28.1238 C.3     1  UNL1        0.1396
     38 O           3.0750   -1.6058   27.4405 O.3     1  UNL1       -0.3819
     39 H           3.9889   -1.8986   27.5815 H       1  UNL1        0.2104
@<TRIPOS>BOND
     1    18    19    1
     2    19    20   ar
     3    20    21   ar
     4    21    16    1
     5    16     1    1
     6     1     2   ar
     7     2     3   ar
     8     3    26    1
     9    28    26    1
    10    28    29    1
    11    29    30    1
    12    30    37    1
    13    37    38    1
    14    30    31    1
    15    31    32    1
    16    31    33    1
    17    33    34    1
    18     3     4   ar
    19     4     7    1
    20     7     8   ar
    21     8     9   ar
    22     9    10   ar
    23    10    11   ar
    24    11    12   ar
    25    12    13   ar
    26    13    14   ar
    27    14    15   ar
    28     4     5   ar
    29     5     6   ar
    30    21    22   ar
    31    22    23   ar
    32    23    24    1
    33    23    25   ar
    34    25    19   ar
    35     6     1   ar
    36    33    28    1
    37    15     7   ar
    38    14     9   ar
    39    16    17    1
    40    26    27    1
    41    38    39    1
    42    32    35    1
    43    34    36    1
@<TRIPOS>MOLECULE
*****
 39 43 0 0 0
SMALL
GASTEIGER

@<TRIPOS>ATOM
      1 C          -8.9165  -19.9610   22.9668 C.ar    1  UNL1        0.1334
      2 C          -8.5244  -18.5143   23.0239 C.ar    1  UNL1        0.0488
      3 C          -7.1730  -18.0836   22.5360 C.ar    1  UNL1        0.0509
      4 C          -6.2136  -19.0996   21.9908 C.ar    1  UNL1        0.0562
      5 C          -6.6057  -20.5463   21.9337 C.ar    1  UNL1        0.1035
      6 N          -7.9571  -20.9770   22.4217 N.ar    1  UNL1       -0.2289
      7 C          -4.8622  -18.6690   21.5029 C.ar    1  UNL1        0.1134
      8 N          -3.9934  -17.6174   22.1268 N.ar    1  UNL1       -0.2382
      9 C          -2.7365  -17.5127   21.3148 C.ar    1  UNL1        0.0879
     10 C          -1.5202  -16.6463   21.4551 C.ar    1  UNL1        0.0196
     11 C          -0.3958  -16.7668   20.4696 C.ar    1  UNL1        0.0016
     12 C          -0.4878  -17.7538   19.3438 C.ar    1  UNL1        0.0006
     13 C          -1.7041  -18.6202   19.2035 C.ar    1  UNL1        0.0080
     14 C          -2.8285  -18.4997   20.1890 C.ar    1  UNL1        0.0485
     15 S          -4.1422  -19.2143   20.3053 S.2     1  UNL1       -0.0664
     16 N         -10.2679  -20.3917   23.4548 N.pl3   1  UNL1       -0.2978
     17 H         -10.4039  -21.3109   23.7800 H       1  UNL1        0.1536
     18 C         -12.9402  -16.6029   21.1086 C.3     1  UNL1        0.0521
     19 C         -12.7483  -17.5275   22.2742 C.ar    1  UNL1        0.0602
     20 C         -11.6041  -18.4973   22.2817 C.ar    1  UNL1        0.0294
     21 C         -11.4122  -19.4218   23.4473 C.ar    1  UNL1        0.0517
     22 C         -12.3645  -19.3765   24.6053 C.ar    1  UNL1        0.0294
     23 C         -13.5088  -18.4066   24.5977 C.ar    1  UNL1        0.0602
     24 C         -14.4611  -18.3612   25.7557 C.3     1  UNL1        0.0521
     25 N         -13.7007  -17.4821   23.4322 N.ar    1  UNL1       -0.2539
     26 N          -6.7810  -16.6368   22.5931 N.pl3   1  UNL1       -0.3318
     27 H          -6.6880  -16.1188   21.7611 H       1  UNL1        0.1468
     28 C          -6.5307  -15.9794   23.9179 C.3     1  UNL1        0.0988
     29 C          -7.3564  -16.1526   25.1581 C.3     1  UNL1        0.0270
     30 C          -6.7468  -15.3136   26.2418 C.3     1  UNL1        0.0604
     31 C          -5.5442  -14.6218   25.6713 C.3     1  UNL1        0.1412
     32 O          -4.6349  -13.6833   26.4078 O.3     1  UNL1       -0.3818
     33 C          -5.4107  -15.0333   24.2351 C.3     1  UNL1        0.1549
     34 O          -4.3444  -14.5786   23.2832 O.3     1  UNL1       -0.3803
     35 H          -4.9423  -13.5866   27.3227 H       1  UNL1        0.2104
     36 H          -3.7429  -13.9690   23.7387 H       1  UNL1        0.2105
     37 C          -7.2511  -15.1883   27.6489 C.3     1  UNL1        0.1396
     38 O          -8.5359  -14.4646   27.9235 O.3     1  UNL1       -0.3819
     39 H          -8.4312  -13.5255   27.7044 H       1  UNL1        0.2104
@<TRIPOS>BOND
     1    18    19    1
     2    19    20   ar
     3    20    21   ar
     4    21    16    1
     5    16     1    1
     6     1     2   ar
     7     2     3   ar
     8     3    26    1
     9    28    26    1
    10    28    29    1
    11    29    30    1
    12    30    37    1
    13    37    38    1
    14    30    31    1
    15    31    32    1
    16    31    33    1
    17    33    34    1
    18     3     4   ar
    19     4     7    1
    20     7     8   ar
    21     8     9   ar
    22     9    10   ar
    23    10    11   ar
    24    11    12   ar
    25    12    13   ar
    26    13    14   ar
    27    14    15   ar
    28     4     5   ar
    29     5     6   ar
    30    21    22   ar
    31    22    23   ar
    32    23    24    1
    33    23    25   ar
    34    25    19   ar
    35     6     1   ar
    36    33    28    1
    37    15     7   ar
    38    14     9   ar
    39    16    17    1
    40    26    27    1
    41    38    39    1
    42    32    35    1
    43    34    36    1
@<TRIPOS>MOLECULE
*****
 39 43 0 0 0
SMALL
GASTEIGER

@<TRIPOS>ATOM
      1 C           3.6923    1.5381   34.9694 C.ar    1  UNL1        0.1334
      2 C           3.8389    0.4782   33.9182 C.ar    1  UNL1        0.0488
      3 C           3.1302    0.6222   32.6040 C.ar    1  UNL1        0.0509
      4 C           2.2750    1.8260   32.3410 C.ar    1  UNL1        0.0562
      5 C           2.1284    2.8859   33.3922 C.ar    1  UNL1        0.1035
      6 N           2.8370    2.7420   34.7064 N.ar    1  UNL1       -0.2289
      7 C           1.5663    1.9700   31.0268 C.ar    1  UNL1        0.1134
      8 N           0.8553    0.8777   30.2842 N.ar    1  UNL1       -0.2382
      9 C           0.2938    1.4641   29.0229 C.ar    1  UNL1        0.0879
     10 C          -0.5018    0.8614   27.9033 C.ar    1  UNL1        0.0196
     11 C          -0.9336    1.7134   26.7468 C.ar    1  UNL1        0.0016
     12 C          -0.5696    3.1681   26.7098 C.ar    1  UNL1        0.0006
     13 C           0.2261    3.7708   27.8295 C.ar    1  UNL1        0.0080
     14 C           0.6578    2.9188   28.9860 C.ar    1  UNL1        0.0485
     15 S           1.4442    3.2314   30.2245 S.2     1  UNL1       -0.0664
     16 N           4.4009    1.3942   36.2836 N.pl3   1  UNL1       -0.2978
     17 H           5.2447    0.8896   36.3352 H       1  UNL1        0.1536
     18 C           0.5603    1.7698   39.7633 C.3     1  UNL1        0.0521
     19 C           1.9037    2.2069   39.2590 C.ar    1  UNL1        0.0602
     20 C           2.4806    1.5820   38.0235 C.ar    1  UNL1        0.0294
     21 C           3.8240    2.0191   37.5192 C.ar    1  UNL1        0.0517
     22 C           4.5905    3.0810   38.2505 C.ar    1  UNL1        0.0294
     23 C           4.0135    3.7059   39.4861 C.ar    1  UNL1        0.0602
     24 C           4.7800    4.7678   40.2175 C.3     1  UNL1        0.0521
     25 N           2.6702    3.2688   39.9904 N.ar    1  UNL1       -0.2539
     26 N           3.2768   -0.4378   31.5528 N.pl3   1  UNL1       -0.3318
     27 H           2.5591   -0.5806   30.8942 H       1  UNL1        0.1468
     28 C           4.5169   -1.2803   31.5051 C.3     1  UNL1        0.0988
     29 C           5.7170   -1.0345   30.6395 C.3     1  UNL1        0.0270
     30 C           6.7165   -2.1188   30.9140 C.3     1  UNL1        0.0604
     31 C           6.1341   -3.0348   31.9493 C.3     1  UNL1        0.1412
     32 O           6.7951   -4.2548   32.5192 O.3     1  UNL1       -0.3818
     33 C           4.7747   -2.5166   32.3146 C.3     1  UNL1        0.1549
     34 O           3.8376   -3.1274   33.3140 O.3     1  UNL1       -0.3803
     35 H           7.6692   -4.3679   32.1143 H       1  UNL1        0.2104
     36 H           4.2450   -3.9201   33.6967 H       1  UNL1        0.2105
     37 C           8.0622   -2.2620   30.2669 C.3     1  UNL1        0.1396
     38 O           8.8984   -3.4778   30.5362 O.3     1  UNL1       -0.3819
     39 H           9.1650   -3.4867   31.4688 H       1  UNL1        0.2104
@<TRIPOS>BOND
     1    18    19    1
     2    19    20   ar
     3    20    21   ar
     4    21    16    1
     5    16     1    1
     6     1     2   ar
     7     2     3   ar
     8     3    26    1
     9    28    26    1
    10    28    29    1
    11    29    30    1
    12    30    37    1
    13    37    38    1
    14    30    31    1
    15    31    32    1
    16    31    33    1
    17    33    34    1
    18     3     4   ar
    19     4     7    1
    20     7     8   ar
    21     8     9   ar
    22     9    10   ar
    23    10    11   ar
    24    11    12   ar
    25    12    13   ar
    26    13    14   ar
    27    14    15   ar
    28     4     5   ar
    29     5     6   ar
    30    21    22   ar
    31    22    23   ar
    32    23    24    1
    33    23    25   ar
    34    25    19   ar
    35     6     1   ar
    36    33    28    1
    37    15     7   ar
    38    14     9   ar
    39    16    17    1
    40    26    27    1
    41    38    39    1
    42    32    35    1
    43    34    36    1
@<TRIPOS>MOLECULE
*****
 39 43 0 0 0
SMALL
GASTEIGER

@<TRIPOS>ATOM
      1 C           2.0042    0.1160   30.6627 C.ar    1  UNL1        0.1334
      2 C           3.1145   -0.4003   31.5290 C.ar    1  UNL1        0.0488
      3 C           3.4639    0.3100   32.8031 C.ar    1  UNL1        0.0509
      4 C           2.7029    1.5366   33.2109 C.ar    1  UNL1        0.0562
      5 C           1.5926    2.0529   32.3446 C.ar    1  UNL1        0.1035
      6 N           1.2432    1.3426   31.0705 N.ar    1  UNL1       -0.2289
      7 C           3.0523    2.2469   34.4851 C.ar    1  UNL1        0.1134
      8 N           2.3111    2.1418   35.7849 N.ar    1  UNL1       -0.2382
      9 C           3.0049    3.0170   36.7863 C.ar    1  UNL1        0.0879
     10 C           2.7225    3.3091   38.2302 C.ar    1  UNL1        0.0196
     11 C           3.6101    4.2473   38.9931 C.ar    1  UNL1        0.0016
     12 C           4.7800    4.8933   38.3121 C.ar    1  UNL1        0.0006
     13 C           5.0625    4.6012   36.8682 C.ar    1  UNL1        0.0080
     14 C           4.1749    3.6631   36.1053 C.ar    1  UNL1        0.0485
     15 S           4.2042    3.1871   34.6831 S.2     1  UNL1       -0.0664
     16 N           1.6548   -0.5943   29.3886 N.pl3   1  UNL1       -0.2978
     17 H           1.4456   -1.5562   29.4027 H       1  UNL1        0.1536
     18 C           4.0696    1.1080   25.1141 C.3     1  UNL1        0.0521
     19 C           2.8316    1.0121   25.9557 C.ar    1  UNL1        0.0602
     20 C           2.8622    0.2569   27.2513 C.ar    1  UNL1        0.0294
     21 C           1.6242    0.1609   28.0930 C.ar    1  UNL1        0.0517
     22 C           0.3557    0.8202   27.6389 C.ar    1  UNL1        0.0294
     23 C           0.3251    1.5755   26.3432 C.ar    1  UNL1        0.0602
     24 C          -0.9434    2.2348   25.8892 C.3     1  UNL1        0.0521
     25 N           1.5631    1.6714   25.5017 N.ar    1  UNL1       -0.2539
     26 N           4.5743   -0.2063   33.6695 N.pl3   1  UNL1       -0.3318
     27 H           4.7502    0.2097   34.5443 H       1  UNL1        0.1468
     28 C           5.4167   -1.3564   33.2029 C.3     1  UNL1        0.0988
     29 C           6.8071   -1.2627   32.6480 C.3     1  UNL1        0.0270
     30 C           7.2663   -2.6505   32.3115 C.3     1  UNL1        0.0604
     31 C           6.1596   -3.6019   32.6585 C.3     1  UNL1        0.1412
     32 O           6.1907   -5.0915   32.4850 O.3     1  UNL1       -0.3818
     33 C           5.0165   -2.8020   33.2094 C.3     1  UNL1        0.1549
     34 O           3.7038   -3.3514   33.6835 O.3     1  UNL1       -0.3803
     35 H           7.0451   -5.3555   32.1092 H       1  UNL1        0.2104
     36 H           3.7008   -4.3159   33.5806 H       1  UNL1        0.2105
     37 C           8.5983   -3.0218   31.7301 C.3     1  UNL1        0.1396
     38 O           9.1826   -4.3768   31.9991 O.3     1  UNL1       -0.3819
     39 H           9.3893   -4.4582   32.9434 H       1  UNL1        0.2104
@<TRIPOS>BOND
     1    18    19    1
     2    19    20   ar
     3    20    21   ar
     4    21    16    1
     5    16     1    1
     6     1     2   ar
     7     2     3   ar
     8     3    26    1
     9    28    26    1
    10    28    29    1
    11    29    30    1
    12    30    37    1
    13    37    38    1
    14    30    31    1
    15    31    32    1
    16    31    33    1
    17    33    34    1
    18     3     4   ar
    19     4     7    1
    20     7     8   ar
    21     8     9   ar
    22     9    10   ar
    23    10    11   ar
    24    11    12   ar
    25    12    13   ar
    26    13    14   ar
    27    14    15   ar
    28     4     5   ar
    29     5     6   ar
    30    21    22   ar
    31    22    23   ar
    32    23    24    1
    33    23    25   ar
    34    25    19   ar
    35     6     1   ar
    36    33    28    1
    37    15     7   ar
    38    14     9   ar
    39    16    17    1
    40    26    27    1
    41    38    39    1
    42    32    35    1
    43    34    36    1
@<TRIPOS>MOLECULE
*****
 39 43 0 0 0
SMALL
GASTEIGER

@<TRIPOS>ATOM
      1 C           5.6411    0.8217   35.5323 C.ar    1  UNL1        0.1334
      2 C           4.4883    0.4808   34.6352 C.ar    1  UNL1        0.0488
      3 C           4.6902   -0.4475   33.4744 C.ar    1  UNL1        0.0509
      4 C           6.0449   -1.0349   33.2107 C.ar    1  UNL1        0.0562
      5 C           7.1977   -0.6940   34.1078 C.ar    1  UNL1        0.1035
      6 N           6.9958    0.2343   35.2686 N.ar    1  UNL1       -0.2289
      7 C           6.2469   -1.9632   32.0499 C.ar    1  UNL1        0.1134
      8 N           6.2281   -1.5791   30.6000 N.ar    1  UNL1       -0.2382
      9 C           6.4726   -2.8171   29.7892 C.ar    1  UNL1        0.0879
     10 C           6.5625   -3.0463   28.3096 C.ar    1  UNL1        0.0196
     11 C           6.8224   -4.4249   27.7787 C.ar    1  UNL1        0.0016
     12 C           6.9923   -5.5743   28.7274 C.ar    1  UNL1        0.0006
     13 C           6.9024   -5.3451   30.2070 C.ar    1  UNL1        0.0080
     14 C           6.6426   -3.9665   30.7379 C.ar    1  UNL1        0.0485
     15 S           6.5030   -3.4387   32.1351 S.2     1  UNL1       -0.0664
     16 N           5.4392    1.7500   36.6931 N.pl3   1  UNL1       -0.2978
     17 H           6.2163    2.1653   37.1323 H       1  UNL1        0.1536
     18 C           1.2661    0.3916   39.4754 C.3     1  UNL1        0.0521
     19 C           1.9667    1.3664   38.5759 C.ar    1  UNL1        0.0602
     20 C           3.3527    1.0708   38.0842 C.ar    1  UNL1        0.0294
     21 C           4.0532    2.0456   37.1848 C.ar    1  UNL1        0.0517
     22 C           3.3678    3.3160   36.7770 C.ar    1  UNL1        0.0294
     23 C           1.9818    3.6116   37.2687 C.ar    1  UNL1        0.0602
     24 C           1.2964    4.8820   36.8610 C.3     1  UNL1        0.0521
     25 N           1.2813    2.6368   38.1681 N.ar    1  UNL1       -0.2539
     26 N           3.5373   -0.7884   32.5773 N.pl3   1  UNL1       -0.3318
     27 H           3.1317   -1.6846   32.6161 H       1  UNL1        0.1468
     28 C           3.0025    0.2362   31.6212 C.3     1  UNL1        0.0988
     29 C           3.2952    0.3085   30.1518 C.3     1  UNL1        0.0270
     30 C           2.5547    1.4853   29.5890 C.3     1  UNL1        0.0604
     31 C           1.8044    2.1405   30.7107 C.3     1  UNL1        0.1412
     32 O           0.9308    3.3544   30.5964 O.3     1  UNL1       -0.3818
     33 C           2.0812    1.3684   31.9666 C.3     1  UNL1        0.1549
     34 O           1.5330    1.6748   33.3287 O.3     1  UNL1       -0.3803
     35 H           0.9209    3.6601   29.6759 H       1  UNL1        0.2104
     36 H           0.9633    2.4584   33.2793 H       1  UNL1        0.2105
     37 C           2.5630    1.9292   28.1562 C.3     1  UNL1        0.1396
     38 O           2.0559    3.2926   27.7905 O.3     1  UNL1       -0.3819
     39 H           1.1040    3.3425   27.9703 H       1  UNL1        0.2104
@<TRIPOS>BOND
     1    18    19    1
     2    19    20   ar
     3    20    21   ar
     4    21    16    1
     5    16     1    1
     6     1     2   ar
     7     2     3   ar
     8     3    26    1
     9    28    26    1
    10    28    29    1
    11    29    30    1
    12    30    37    1
    13    37    38    1
    14    30    31    1
    15    31    32    1
    16    31    33    1
    17    33    34    1
    18     3     4   ar
    19     4     7    1
    20     7     8   ar
    21     8     9   ar
    22     9    10   ar
    23    10    11   ar
    24    11    12   ar
    25    12    13   ar
    26    13    14   ar
    27    14    15   ar
    28     4     5   ar
    29     5     6   ar
    30    21    22   ar
    31    22    23   ar
    32    23    24    1
    33    23    25   ar
    34    25    19   ar
    35     6     1   ar
    36    33    28    1
    37    15     7   ar
    38    14     9   ar
    39    16    17    1
    40    26    27    1
    41    38    39    1
    42    32    35    1
    43    34    36    1
@<TRIPOS>MOLECULE
*****
 39 43 0 0 0
SMALL
GASTEIGER

@<TRIPOS>ATOM
      1 C           3.0175    1.0709   23.5937 C.ar    1  UNL1        0.1334
      2 C           2.1827    0.4513   24.6750 C.ar    1  UNL1        0.0488
      3 C           1.0344    1.2143   25.2660 C.ar    1  UNL1        0.0509
      4 C           0.7210    2.5968   24.7758 C.ar    1  UNL1        0.0562
      5 C           1.5558    3.2164   23.6946 C.ar    1  UNL1        0.1035
      6 N           2.7041    2.4534   23.1035 N.ar    1  UNL1       -0.2289
      7 C          -0.4273    3.3598   25.3668 C.ar    1  UNL1        0.1134
      8 N          -1.8177    2.8377   25.5772 N.ar    1  UNL1       -0.2382
      9 C          -2.6365    3.9341   26.1917 C.ar    1  UNL1        0.0879
     10 C          -4.0731    3.9949   26.6188 C.ar    1  UNL1        0.0196
     11 C          -4.6254    5.2555   27.2153 C.ar    1  UNL1        0.0016
     12 C          -3.7411    6.4552   27.3847 C.ar    1  UNL1        0.0006
     13 C          -2.3045    6.3943   26.9576 C.ar    1  UNL1        0.0080
     14 C          -1.7522    5.1338   26.3610 C.ar    1  UNL1        0.0485
     15 S          -0.3869    4.7788   25.8513 S.2     1  UNL1       -0.0664
     16 N           4.1658    0.3079   23.0027 N.pl3   1  UNL1       -0.2978
     17 H           5.0450    0.3202   23.4456 H       1  UNL1        0.1536
     18 C           2.9401    0.1455   17.9557 C.3     1  UNL1        0.0521
     19 C           3.3618   -0.5550   19.2134 C.ar    1  UNL1        0.0602
     20 C           3.5530    0.2267   20.4792 C.ar    1  UNL1        0.0294
     21 C           3.9746   -0.4738   21.7369 C.ar    1  UNL1        0.0517
     22 C           4.2050   -1.9560   21.7286 C.ar    1  UNL1        0.0294
     23 C           4.0138   -2.7376   20.4627 C.ar    1  UNL1        0.0602
     24 C           4.2443   -4.2198   20.4544 C.3     1  UNL1        0.0521
     25 N           3.5922   -2.0372   19.2051 N.ar    1  UNL1       -0.2539
     26 N           0.1995    0.5947   26.3473 N.pl3   1  UNL1       -0.3318
     27 H          -0.6155    0.0941   26.1140 H       1  UNL1        0.1468
     28 C           0.6064    0.7378   27.7839 C.3     1  UNL1        0.0988
     29 C           0.0557    1.7337   28.7612 C.3     1  UNL1        0.0270
     30 C           0.7443    1.5216   30.0768 C.3     1  UNL1        0.0604
     31 C           1.7206    0.3946   29.9126 C.3     1  UNL1        0.1412
     32 O           2.6236   -0.1520   30.9784 O.3     1  UNL1       -0.3818
     33 C           1.6353   -0.0898   28.4955 C.3     1  UNL1        0.1549
     34 O           2.4381   -1.2058   27.8955 O.3     1  UNL1       -0.3803
     35 H           2.4825    0.3374   31.8039 H       1  UNL1        0.2104
     36 H           3.0309   -1.5756   28.5682 H       1  UNL1        0.2105
     37 C           0.4997    2.2998   31.3356 C.3     1  UNL1        0.1396
     38 O           0.8515    1.7036   32.6663 O.3     1  UNL1       -0.3819
     39 H           0.2835    0.9361   32.8370 H       1  UNL1        0.2104
@<TRIPOS>BOND
     1    18    19    1
     2    19    20   ar
     3    20    21   ar
     4    21    16    1
     5    16     1    1
     6     1     2   ar
     7     2     3   ar
     8     3    26    1
     9    28    26    1
    10    28    29    1
    11    29    30    1
    12    30    37    1
    13    37    38    1
    14    30    31    1
    15    31    32    1
    16    31    33    1
    17    33    34    1
    18     3     4   ar
    19     4     7    1
    20     7     8   ar
    21     8     9   ar
    22     9    10   ar
    23    10    11   ar
    24    11    12   ar
    25    12    13   ar
    26    13    14   ar
    27    14    15   ar
    28     4     5   ar
    29     5     6   ar
    30    21    22   ar
    31    22    23   ar
    32    23    24    1
    33    23    25   ar
    34    25    19   ar
    35     6     1   ar
    36    33    28    1
    37    15     7   ar
    38    14     9   ar
    39    16    17    1
    40    26    27    1
    41    38    39    1
    42    32    35    1
    43    34    36    1
@<TRIPOS>MOLECULE
*****
 39 43 0 0 0
SMALL
GASTEIGER

@<TRIPOS>ATOM
      1 C           6.1315   -1.2442   27.7790 C.ar    1  UNL1        0.1334
      2 C           7.1325   -1.7957   26.8075 C.ar    1  UNL1        0.0488
      3 C           6.7098   -2.1420   25.4106 C.ar    1  UNL1        0.0509
      4 C           5.2862   -1.9368   24.9851 C.ar    1  UNL1        0.0562
      5 C           4.2852   -1.3852   25.9566 C.ar    1  UNL1        0.1035
      6 N           4.7078   -1.0389   27.3535 N.ar    1  UNL1       -0.2289
      7 C           4.8635   -2.2830   23.5882 C.ar    1  UNL1        0.1134
      8 N           4.9408   -3.6404   22.9545 N.ar    1  UNL1       -0.2382
      9 C           4.4144   -3.5291   21.5544 C.ar    1  UNL1        0.0879
     10 C           4.2497   -4.5421   20.4605 C.ar    1  UNL1        0.0196
     11 C           3.6824   -4.1288   19.1349 C.ar    1  UNL1        0.0016
     12 C           3.2797   -2.7026   18.9031 C.ar    1  UNL1        0.0006
     13 C           3.4444   -1.6896   19.9970 C.ar    1  UNL1        0.0080
     14 C           4.0118   -2.1028   21.3226 C.ar    1  UNL1        0.0485
     15 S           4.2893   -1.3328   22.5796 S.2     1  UNL1       -0.0664
     16 N           6.5541   -0.8979   29.1760 N.pl3   1  UNL1       -0.2978
     17 H           6.9661   -0.0235   29.3631 H       1  UNL1        0.1536
     18 C           7.4544   -5.5654   31.2746 C.3     1  UNL1        0.0521
     19 C           6.7992   -4.2175   31.3370 C.ar    1  UNL1        0.0602
     20 C           7.0042   -3.2316   30.2253 C.ar    1  UNL1        0.0294
     21 C           6.3490   -1.8837   30.2877 C.ar    1  UNL1        0.0517
     22 C           5.4888   -1.5216   31.4620 C.ar    1  UNL1        0.0294
     23 C           5.2837   -2.5076   32.5738 C.ar    1  UNL1        0.0602
     24 C           4.4234   -2.1455   33.7480 C.3     1  UNL1        0.0521
     25 N           5.9389   -3.8554   32.5113 N.ar    1  UNL1       -0.2539
     26 N           7.7109   -2.6935   24.4391 N.pl3   1  UNL1       -0.3318
     27 H           8.2386   -2.0824   23.8759 H       1  UNL1        0.1468
     28 C           7.9078   -4.1762   24.3257 C.3     1  UNL1        0.0988
     29 C           7.7462   -5.1743   25.4337 C.3     1  UNL1        0.0270
     30 C           8.0395   -6.5360   24.8773 C.3     1  UNL1        0.0604
     31 C           8.3823   -6.3795   23.4253 C.3     1  UNL1        0.1412
     32 O           8.7432   -7.4870   22.4803 O.3     1  UNL1       -0.3818
     33 C           8.3010   -4.9211   23.0845 C.3     1  UNL1        0.1549
     34 O           8.5662   -4.3140   21.7387 O.3     1  UNL1       -0.3803
     35 H           8.7224   -8.3343   22.9521 H       1  UNL1        0.2104
     36 H           8.8021   -5.0134   21.1094 H       1  UNL1        0.2105
     37 C           7.9973   -7.8276   25.6390 C.3     1  UNL1        0.1396
     38 O           6.7468   -8.2311   26.3626 O.3     1  UNL1       -0.3819
     39 H           6.5780   -7.6094   27.0878 H       1  UNL1        0.2104
@<TRIPOS>BOND
     1    18    19    1
     2    19    20   ar
     3    20    21   ar
     4    21    16    1
     5    16     1    1
     6     1     2   ar
     7     2     3   ar
     8     3    26    1
     9    28    26    1
    10    28    29    1
    11    29    30    1
    12    30    37    1
    13    37    38    1
    14    30    31    1
    15    31    32    1
    16    31    33    1
    17    33    34    1
    18     3     4   ar
    19     4     7    1
    20     7     8   ar
    21     8     9   ar
    22     9    10   ar
    23    10    11   ar
    24    11    12   ar
    25    12    13   ar
    26    13    14   ar
    27    14    15   ar
    28     4     5   ar
    29     5     6   ar
    30    21    22   ar
    31    22    23   ar
    32    23    24    1
    33    23    25   ar
    34    25    19   ar
    35     6     1   ar
    36    33    28    1
    37    15     7   ar
    38    14     9   ar
    39    16    17    1
    40    26    27    1
    41    38    39    1
    42    32    35    1
    43    34    36    1
