@<TRIPOS>MOLECULE
*****
 33 36 0 0 0
SMALL
GASTEIGER

@<TRIPOS>ATOM
      1 C          -9.0906  -19.4666   23.2664 C.2     1  UNL1        0.2665
      2 O          -9.9368  -20.6858   23.4841 O.2     1  UNL1       -0.2710
      3 N          -9.5687  -18.1270   23.7424 N.am    1  UNL1       -0.2714
      4 C         -10.8932  -18.0064   24.4361 C.3     1  UNL1        0.1153
      5 C          -3.1339  -19.4973   20.7921 C.ar    1  UNL1        0.0502
      6 C          -3.7334  -20.4653   19.8156 C.ar    1  UNL1        0.0178
      7 C          -5.1802  -20.8450   19.9281 C.ar    1  UNL1        0.0379
      8 C          -6.0275  -20.2566   21.0171 C.ar    1  UNL1        0.1353
      9 C          -5.4280  -19.2886   21.9935 C.ar    1  UNL1        0.0172
     10 C          -3.9812  -18.9090   21.8811 C.ar    1  UNL1        0.0135
     11 C          -6.5025  -18.8748   22.9551 C.3     1  UNL1        0.0826
     12 C          -7.7660  -19.5871   22.5728 C.3     1  UNL1        0.2456
     13 O          -7.4724  -20.4411   21.3750 O.3     1  UNL1       -0.4699
     14 C           0.1419  -17.3895   20.0331 C.3     1  UNL1        0.0949
     15 C          -1.3049  -17.7692   20.1456 C.2     1  UNL1        0.2266
     16 O          -2.3696  -16.8002   19.7239 O.2     1  UNL1       -0.2748
     17 N          -1.6871  -19.1177   20.6797 N.am    1  UNL1       -0.2839
     18 H          -0.9884  -19.7537   20.9564 H       1  UNL1        0.1549
     19 C          -8.7224  -16.9078   23.5248 C.3     1  UNL1        0.1139
     20 C          -7.9434  -16.3222   24.6651 C.ar    1  UNL1       -0.0029
     21 C          -6.5709  -15.7653   24.4282 C.ar    1  UNL1       -0.0026
     22 C          -5.7920  -15.1798   25.5685 C.ar    1  UNL1       -0.0003
     23 C          -6.3855  -15.1510   26.9457 C.ar    1  UNL1       -0.0000
     24 C          -7.7580  -15.7079   27.1827 C.ar    1  UNL1       -0.0003
     25 C          -8.5370  -16.2935   26.0424 C.ar    1  UNL1       -0.0026
     26 C          -8.6550  -16.2742   22.1668 C.3     1  UNL1        0.0968
     27 N          -9.7720  -16.4799   21.1869 N.3     1  UNL1       -0.2689
     28 C         -10.1977  -17.7921   20.5981 C.3     1  UNL1        0.0748
     29 C         -11.3481  -17.5328   19.6711 C.3     1  UNL1        0.0480
     30 C         -11.6334  -16.0603   19.6871 C.3     1  UNL1        0.1278
     31 O         -12.7047  -15.3612   18.9038 O.3     1  UNL1       -0.3830
     32 C         -10.6592  -15.4095   20.6240 C.3     1  UNL1        0.1017
     33 H         -12.6760  -14.4104   19.0939 H       1  UNL1        0.2104
@<TRIPOS>BOND
     1    14    15    1
     2    15    16    2
     3    15    17   am
     4    17     5    1
     5     5     6   ar
     6     6     7   ar
     7     7     8   ar
     8     8     9   ar
     9     9    10   ar
    10     9    11    1
    11    11    12    1
    12    12     1    1
    13     1     2    2
    14     1     3   am
    15     3     4    1
    16     3    19    1
    17    19    26    1
    18    26    27    1
    19    27    28    1
    20    28    29    1
    21    29    30    1
    22    30    31    1
    23    30    32    1
    24    19    20    1
    25    20    21   ar
    26    21    22   ar
    27    22    23   ar
    28    23    24   ar
    29    24    25   ar
    30    12    13    1
    31    10     5   ar
    32    32    27    1
    33    25    20   ar
    34    13     8    1
    35    17    18    1
    36    31    33    1
@<TRIPOS>MOLECULE
*****
 33 36 0 0 0
SMALL
GASTEIGER

@<TRIPOS>ATOM
      1 C          -8.7136  -19.6768   19.3076 C.2     1  UNL1        0.2665
      2 O          -9.0949  -20.4198   18.0616 O.2     1  UNL1       -0.2710
      3 N          -9.7662  -18.9768   20.1152 N.am    1  UNL1       -0.2714
      4 C         -11.2000  -19.0199   19.6769 C.3     1  UNL1        0.1153
      5 C          -2.3964  -19.1962   20.5186 C.ar    1  UNL1        0.0502
      6 C          -2.7830  -19.7886   21.8413 C.ar    1  UNL1        0.0178
      7 C          -4.2181  -20.1222   22.1230 C.ar    1  UNL1        0.0379
      8 C          -5.2665  -19.8634   21.0820 C.ar    1  UNL1        0.1353
      9 C          -4.8799  -19.2710   19.7593 C.ar    1  UNL1        0.0172
     10 C          -3.4449  -18.9374   19.4776 C.ar    1  UNL1        0.0135
     11 C          -6.1242  -19.1290   18.9335 C.3     1  UNL1        0.0826
     12 C          -7.2797  -19.6336   19.7459 C.3     1  UNL1        0.2456
     13 O          -6.7497  -20.0875   21.0738 O.3     1  UNL1       -0.4699
     14 C           0.9679  -17.1252   20.1416 C.3     1  UNL1        0.0949
     15 C          -0.4671  -17.4588   20.4233 C.2     1  UNL1        0.2266
     16 O          -1.4080  -16.3884   20.8916 O.2     1  UNL1       -0.2748
     17 N          -0.9614  -18.8627   20.2368 N.am    1  UNL1       -0.2839
     18 H          -0.3439  -19.5652   19.9295 H       1  UNL1        0.1549
     19 C          -9.3848  -18.2337   21.3612 C.3     1  UNL1        0.1139
     20 C          -9.7926  -18.7626   22.7043 C.ar    1  UNL1       -0.0029
     21 C          -9.1404  -19.9964   23.2540 C.ar    1  UNL1       -0.0026
     22 C          -9.5482  -20.5253   24.5971 C.ar    1  UNL1       -0.0003
     23 C         -10.6081  -19.8203   25.3906 C.ar    1  UNL1       -0.0000
     24 C         -11.2603  -18.5864   24.8409 C.ar    1  UNL1       -0.0003
     25 C         -10.8525  -18.0575   23.4977 C.ar    1  UNL1       -0.0026
     26 C          -8.5957  -16.9618   21.2640 C.3     1  UNL1        0.0968
     27 N          -7.6648  -16.5701   22.3730 N.3     1  UNL1       -0.2689
     28 C          -6.3710  -17.2459   22.7181 C.3     1  UNL1        0.0748
     29 C          -5.7708  -16.5273   23.8900 C.3     1  UNL1        0.0480
     30 C          -6.6937  -15.4073   24.2692 C.3     1  UNL1        0.1278
     31 O          -6.4830  -14.4321   25.3894 O.3     1  UNL1       -0.3830
     32 C          -7.8643  -15.4337   23.3316 C.3     1  UNL1        0.1017
     33 H          -7.2264  -13.8099   25.4204 H       1  UNL1        0.2104
@<TRIPOS>BOND
     1    14    15    1
     2    15    16    2
     3    15    17   am
     4    17     5    1
     5     5     6   ar
     6     6     7   ar
     7     7     8   ar
     8     8     9   ar
     9     9    10   ar
    10     9    11    1
    11    11    12    1
    12    12     1    1
    13     1     2    2
    14     1     3   am
    15     3     4    1
    16     3    19    1
    17    19    26    1
    18    26    27    1
    19    27    28    1
    20    28    29    1
    21    29    30    1
    22    30    31    1
    23    30    32    1
    24    19    20    1
    25    20    21   ar
    26    21    22   ar
    27    22    23   ar
    28    23    24   ar
    29    24    25   ar
    30    12    13    1
    31    10     5   ar
    32    32    27    1
    33    25    20   ar
    34    13     8    1
    35    17    18    1
    36    31    33    1
@<TRIPOS>MOLECULE
*****
 33 36 0 0 0
SMALL
GASTEIGER

@<TRIPOS>ATOM
      1 C          -8.8559  -19.6214   23.5814 C.2     1  UNL1        0.2665
      2 O          -9.2571  -20.7593   24.4726 O.2     1  UNL1       -0.2710
      3 N          -9.7083  -18.3892   23.5087 N.am    1  UNL1       -0.2714
      4 C         -10.9618  -18.2950   24.3270 C.3     1  UNL1        0.1153
      5 C          -3.1438  -19.5941   20.5855 C.ar    1  UNL1        0.0502
      6 C          -3.8606  -20.4532   19.5865 C.ar    1  UNL1        0.0178
      7 C          -5.3046  -20.8013   19.7958 C.ar    1  UNL1        0.0379
      8 C          -6.0318  -20.2901   21.0041 C.ar    1  UNL1        0.1353
      9 C          -5.3150  -19.4310   22.0030 C.ar    1  UNL1        0.0172
     10 C          -3.8710  -19.0829   21.7937 C.ar    1  UNL1        0.0135
     11 C          -6.2856  -19.0758   23.0902 C.3     1  UNL1        0.0826
     12 C          -7.6023  -19.7156   22.7630 C.3     1  UNL1        0.2456
     13 O          -7.4454  -20.4660   21.4737 O.3     1  UNL1       -0.4699
     14 C           0.1458  -17.4716   19.9349 C.3     1  UNL1        0.0949
     15 C          -1.2982  -17.8196   20.1442 C.2     1  UNL1        0.2266
     16 O          -2.3405  -16.7411   20.1213 O.2     1  UNL1       -0.2748
     17 N          -1.6998  -19.2460   20.3762 N.am    1  UNL1       -0.2839
     18 H          -1.0157  -19.9539   20.3912 H       1  UNL1        0.1549
     19 C          -9.3071  -17.2513   22.6175 C.3     1  UNL1        0.1139
     20 C         -10.1135  -16.9380   21.3921 C.ar    1  UNL1       -0.0029
     21 C         -10.7699  -18.0458   20.6227 C.ar    1  UNL1       -0.0026
     22 C         -11.5763  -17.7325   19.3974 C.ar    1  UNL1       -0.0003
     23 C         -11.7264  -16.3114   18.9414 C.ar    1  UNL1       -0.0000
     24 C         -11.0701  -15.2035   19.7108 C.ar    1  UNL1       -0.0003
     25 C         -10.2636  -15.5168   20.9361 C.ar    1  UNL1       -0.0026
     26 C          -8.0995  -16.4267   22.9516 C.3     1  UNL1        0.0968
     27 N          -7.8304  -16.0327   24.3738 N.3     1  UNL1       -0.2689
     28 C          -6.4870  -15.9985   25.0400 C.3     1  UNL1        0.0748
     29 C          -6.6838  -15.5485   26.4573 C.3     1  UNL1        0.0480
     30 C          -8.1489  -15.3046   26.6670 C.3     1  UNL1        0.1278
     31 O          -8.7924  -14.8426   27.9408 O.3     1  UNL1       -0.3830
     32 C          -8.8576  -15.6039   25.3793 C.3     1  UNL1        0.1017
     33 H          -9.7502  -14.7639   27.8092 H       1  UNL1        0.2104
@<TRIPOS>BOND
     1    14    15    1
     2    15    16    2
     3    15    17   am
     4    17     5    1
     5     5     6   ar
     6     6     7   ar
     7     7     8   ar
     8     8     9   ar
     9     9    10   ar
    10     9    11    1
    11    11    12    1
    12    12     1    1
    13     1     2    2
    14     1     3   am
    15     3     4    1
    16     3    19    1
    17    19    26    1
    18    26    27    1
    19    27    28    1
    20    28    29    1
    21    29    30    1
    22    30    31    1
    23    30    32    1
    24    19    20    1
    25    20    21   ar
    26    21    22   ar
    27    22    23   ar
    28    23    24   ar
    29    24    25   ar
    30    12    13    1
    31    10     5   ar
    32    32    27    1
    33    25    20   ar
    34    13     8    1
    35    17    18    1
    36    31    33    1
@<TRIPOS>MOLECULE
*****
 33 36 0 0 0
SMALL
GASTEIGER

@<TRIPOS>ATOM
      1 C           2.3720    0.3389   20.5112 C.2     1  UNL1        0.2665
      2 O           1.2015    0.8888   21.2712 O.2     1  UNL1       -0.2710
      3 N           2.4564    0.5264   19.0254 N.am    1  UNL1       -0.2714
      4 C           1.3705    1.2638   18.2995 C.3     1  UNL1        0.1153
      5 C           6.5040   -3.2967   23.8747 C.ar    1  UNL1        0.0502
      6 C           7.5168   -2.3240   23.3474 C.ar    1  UNL1        0.0178
      7 C           7.0826   -1.1991   22.4552 C.ar    1  UNL1        0.0379
      8 C           5.6357   -1.0468   22.0903 C.ar    1  UNL1        0.1353
      9 C           4.6229   -2.0195   22.6176 C.ar    1  UNL1        0.0172
     10 C           5.0571   -3.1444   23.5099 C.ar    1  UNL1        0.0135
     11 C           3.2770   -1.6188   22.0903 C.3     1  UNL1        0.0826
     12 C           3.4580   -0.3985   21.2370 C.3     1  UNL1        0.2456
     13 O           4.9158   -0.0450   21.2370 O.3     1  UNL1       -0.4699
     14 C           8.0485   -6.7503   25.0733 C.3     1  UNL1        0.0949
     15 C           7.6144   -5.6254   24.1811 C.2     1  UNL1        0.2266
     16 O           7.8565   -5.7044   22.7028 O.2     1  UNL1       -0.2748
     17 N           6.9381   -4.4216   24.7670 N.am    1  UNL1       -0.2839
     18 H           6.7792   -4.3697   25.7372 H       1  UNL1        0.1549
     19 C           3.6270   -0.0235   18.2654 C.3     1  UNL1        0.1139
     20 C           4.8342    0.8335   18.0244 C.ar    1  UNL1       -0.0029
     21 C           4.9122    2.2055   18.6257 C.ar    1  UNL1       -0.0026
     22 C           6.1195    3.0625   18.3848 C.ar    1  UNL1       -0.0003
     23 C           7.2488    2.5475   17.5425 C.ar    1  UNL1       -0.0000
     24 C           7.1709    1.1755   16.9412 C.ar    1  UNL1       -0.0003
     25 C           5.9636    0.3185   17.1821 C.ar    1  UNL1       -0.0026
     26 C           3.5902   -1.4303   17.7464 C.3     1  UNL1        0.0968
     27 N           4.1048   -2.5561   18.5938 N.3     1  UNL1       -0.2689
     28 C           3.2828   -3.6654   19.1798 C.3     1  UNL1        0.0748
     29 C           4.2017   -4.5650   19.9521 C.3     1  UNL1        0.0480
     30 C           5.5916   -4.0116   19.8433 C.3     1  UNL1        0.1278
     31 O           6.8249   -4.5970   20.4649 O.3     1  UNL1       -0.3830
     32 C           5.5318   -2.7699   19.0038 C.3     1  UNL1        0.1017
     33 H           7.5919   -4.0468   20.2416 H       1  UNL1        0.2104
@<TRIPOS>BOND
     1    14    15    1
     2    15    16    2
     3    15    17   am
     4    17     5    1
     5     5     6   ar
     6     6     7   ar
     7     7     8   ar
     8     8     9   ar
     9     9    10   ar
    10     9    11    1
    11    11    12    1
    12    12     1    1
    13     1     2    2
    14     1     3   am
    15     3     4    1
    16     3    19    1
    17    19    26    1
    18    26    27    1
    19    27    28    1
    20    28    29    1
    21    29    30    1
    22    30    31    1
    23    30    32    1
    24    19    20    1
    25    20    21   ar
    26    21    22   ar
    27    22    23   ar
    28    23    24   ar
    29    24    25   ar
    30    12    13    1
    31    10     5   ar
    32    32    27    1
    33    25    20   ar
    34    13     8    1
    35    17    18    1
    36    31    33    1
@<TRIPOS>MOLECULE
*****
 33 36 0 0 0
SMALL
GASTEIGER

@<TRIPOS>ATOM
      1 C           4.8612   -3.2142   21.2623 C.2     1  UNL1        0.2665
      2 O           4.4413   -4.6537   21.2241 O.2     1  UNL1       -0.2710
      3 N           6.3148   -2.8544   21.1754 N.am    1  UNL1       -0.2714
      4 C           7.3485   -3.9341   21.0503 C.3     1  UNL1        0.1153
      5 C           0.2088    1.2505   21.1007 C.ar    1  UNL1        0.0502
      6 C           0.6843    1.5443   22.4927 C.ar    1  UNL1        0.0178
      7 C           1.8171    0.7561   23.0803 C.ar    1  UNL1        0.0379
      8 C           2.4746   -0.3259   22.2760 C.ar    1  UNL1        0.1353
      9 C           1.9992   -0.6197   20.8840 C.ar    1  UNL1        0.0172
     10 C           0.8663    0.1685   20.2964 C.ar    1  UNL1        0.0135
     11 C           2.8353   -1.7374   20.3348 C.3     1  UNL1        0.0826
     12 C           3.8275   -2.1344   21.3874 C.3     1  UNL1        0.2456
     13 O           3.6046   -1.2620   22.5871 O.3     1  UNL1       -0.4699
     14 C          -1.7720    4.0104   19.0490 C.3     1  UNL1        0.0949
     15 C          -0.6391    3.2221   19.6366 C.2     1  UNL1        0.2266
     16 O           0.7788    3.6174   19.3477 O.2     1  UNL1       -0.2748
     17 N          -0.9240    2.0387   20.5131 N.am    1  UNL1       -0.2839
     18 H          -1.8546    1.7793   20.7027 H       1  UNL1        0.1549
     19 C           6.7348   -1.4149   21.2136 C.3     1  UNL1        0.1139
     20 C           6.8862   -0.7125   22.5303 C.ar    1  UNL1       -0.0029
     21 C           6.7099    0.7748   22.6116 C.ar    1  UNL1       -0.0026
     22 C           6.8614    1.4772   23.9283 C.ar    1  UNL1       -0.0003
     23 C           7.1891    0.6922   25.1637 C.ar    1  UNL1       -0.0000
     24 C           7.3654   -0.7952   25.0825 C.ar    1  UNL1       -0.0003
     25 C           7.2139   -1.4976   23.7658 C.ar    1  UNL1       -0.0026
     26 C           7.0032   -0.6777   19.9351 C.3     1  UNL1        0.0968
     27 N           5.8868   -0.4274   18.9650 N.3     1  UNL1       -0.2689
     28 C           5.0159    0.7929   18.9189 C.3     1  UNL1        0.0748
     29 C           4.0361    0.6211   17.7962 C.3     1  UNL1        0.0480
     30 C           4.3015   -0.7055   17.1484 C.3     1  UNL1        0.1278
     31 O           3.5543   -1.2828   15.9829 O.3     1  UNL1       -0.3830
     32 C           5.4453   -1.3536   17.8708 C.3     1  UNL1        0.1017
     33 H           3.9242   -2.1513   15.7598 H       1  UNL1        0.2104
@<TRIPOS>BOND
     1    14    15    1
     2    15    16    2
     3    15    17   am
     4    17     5    1
     5     5     6   ar
     6     6     7   ar
     7     7     8   ar
     8     8     9   ar
     9     9    10   ar
    10     9    11    1
    11    11    12    1
    12    12     1    1
    13     1     2    2
    14     1     3   am
    15     3     4    1
    16     3    19    1
    17    19    26    1
    18    26    27    1
    19    27    28    1
    20    28    29    1
    21    29    30    1
    22    30    31    1
    23    30    32    1
    24    19    20    1
    25    20    21   ar
    26    21    22   ar
    27    22    23   ar
    28    23    24   ar
    29    24    25   ar
    30    12    13    1
    31    10     5   ar
    32    32    27    1
    33    25    20   ar
    34    13     8    1
    35    17    18    1
    36    31    33    1
@<TRIPOS>MOLECULE
*****
 33 36 0 0 0
SMALL
GASTEIGER

@<TRIPOS>ATOM
      1 C           5.8930    1.0318   20.5396 C.2     1  UNL1        0.2665
      2 O           7.1649    1.7652   20.8468 O.2     1  UNL1       -0.2710
      3 N           5.8367    0.0806   19.3811 N.am    1  UNL1       -0.2714
      4 C           7.0523   -0.1372   18.5298 C.3     1  UNL1        0.1153
      5 C           0.8258    1.3083   24.5211 C.ar    1  UNL1        0.0502
      6 C           0.5760    2.6158   23.8297 C.ar    1  UNL1        0.0178
      7 C           1.5038    3.0809   22.7468 C.ar    1  UNL1        0.0379
      8 C           2.6815    2.2386   22.3552 C.ar    1  UNL1        0.1353
      9 C           2.9314    0.9311   23.0466 C.ar    1  UNL1        0.0172
     10 C           2.0036    0.4660   24.1296 C.ar    1  UNL1        0.0135
     11 C           4.1649    0.3199   22.4507 C.3     1  UNL1        0.0826
     12 C           4.6772    1.2496   21.3909 C.3     1  UNL1        0.2456
     13 O           3.7605    2.4354   21.3320 O.3     1  UNL1       -0.4699
     14 C          -0.8303    0.8463   28.0979 C.3     1  UNL1        0.0949
     15 C           0.0976    1.3115   27.0150 C.2     1  UNL1        0.2266
     16 O           1.2251    2.2449   27.3431 O.2     1  UNL1       -0.2748
     17 N          -0.1020    0.8432   25.6040 N.am    1  UNL1       -0.2839
     18 H          -0.8420    0.2306   25.3887 H       1  UNL1        0.1549
     19 C           4.5647   -0.6527   19.0739 C.3     1  UNL1        0.1139
     20 C           4.3789   -2.0634   19.5488 C.ar    1  UNL1       -0.0029
     21 C           3.7425   -3.0802   18.6483 C.ar    1  UNL1       -0.0026
     22 C           3.5567   -4.4909   19.1232 C.ar    1  UNL1       -0.0003
     23 C           4.0073   -4.8847   20.4986 C.ar    1  UNL1       -0.0000
     24 C           4.6438   -3.8679   21.3992 C.ar    1  UNL1       -0.0003
     25 C           4.8296   -2.4572   20.9243 C.ar    1  UNL1       -0.0026
     26 C           3.4786    0.0245   18.2919 C.3     1  UNL1        0.0968
     27 N           2.2021    0.4232   18.9715 N.3     1  UNL1       -0.2689
     28 C           1.4096   -0.4215   19.9246 C.3     1  UNL1        0.0748
     29 C           0.2118    0.3698   20.3594 C.3     1  UNL1        0.0480
     30 C           0.2639    1.7035   19.6750 C.3     1  UNL1        0.1278
     31 O          -0.7381    2.8100   19.8225 O.3     1  UNL1       -0.3830
     32 C           1.4940    1.7366   18.8172 C.3     1  UNL1        0.1017
     33 H          -0.4709    3.5635   19.2731 H       1  UNL1        0.2104
@<TRIPOS>BOND
     1    14    15    1
     2    15    16    2
     3    15    17   am
     4    17     5    1
     5     5     6   ar
     6     6     7   ar
     7     7     8   ar
     8     8     9   ar
     9     9    10   ar
    10     9    11    1
    11    11    12    1
    12    12     1    1
    13     1     2    2
    14     1     3   am
    15     3     4    1
    16     3    19    1
    17    19    26    1
    18    26    27    1
    19    27    28    1
    20    28    29    1
    21    29    30    1
    22    30    31    1
    23    30    32    1
    24    19    20    1
    25    20    21   ar
    26    21    22   ar
    27    22    23   ar
    28    23    24   ar
    29    24    25   ar
    30    12    13    1
    31    10     5   ar
    32    32    27    1
    33    25    20   ar
    34    13     8    1
    35    17    18    1
    36    31    33    1
@<TRIPOS>MOLECULE
*****
 33 36 0 0 0
SMALL
GASTEIGER

@<TRIPOS>ATOM
      1 C           5.0241   -3.3042   20.5240 C.2     1  UNL1        0.2665
      2 O           4.7431   -4.7335   20.1662 O.2     1  UNL1       -0.2710
      3 N           6.3377   -2.9308   21.1446 N.am    1  UNL1       -0.2714
      4 C           7.3702   -3.9866   21.4073 C.3     1  UNL1        0.1153
      5 C           0.3472    1.1172   20.0972 C.ar    1  UNL1        0.0502
      6 C           0.8814    1.2935   18.7067 C.ar    1  UNL1        0.0178
      7 C           2.0427    0.4673   18.2390 C.ar    1  UNL1        0.0379
      8 C           2.6698   -0.5353   19.1617 C.ar    1  UNL1        0.1353
      9 C           2.1356   -0.7116   20.5522 C.ar    1  UNL1        0.0172
     10 C           0.9743    0.1146   21.0200 C.ar    1  UNL1        0.0135
     11 C           2.9525   -1.7704   21.2319 C.3     1  UNL1        0.0826
     12 C           3.9916   -2.2483   20.2613 C.3     1  UNL1        0.2456
     13 O           3.8168   -1.4850   18.9819 O.3     1  UNL1       -0.4699
     14 C          -1.7403    3.9699   21.9011 C.3     1  UNL1        0.0949
     15 C          -0.5791    3.1437   21.4334 C.2     1  UNL1        0.2266
     16 O           0.8172    3.5177   21.8341 O.2     1  UNL1       -0.2748
     17 N          -0.8140    1.9434   20.5650 N.am    1  UNL1       -0.2839
     18 H          -1.7305    1.6979   20.3020 H       1  UNL1        0.1549
     19 C           6.6187   -1.5014   21.5025 C.3     1  UNL1        0.1139
     20 C           6.6913   -0.4591   20.4261 C.ar    1  UNL1       -0.0029
     21 C           7.5279   -0.6995   19.2046 C.ar    1  UNL1       -0.0026
     22 C           7.6005    0.3427   18.1282 C.ar    1  UNL1       -0.0003
     23 C           6.8366    1.6254   18.2735 C.ar    1  UNL1       -0.0000
     24 C           6.0000    1.8658   19.4951 C.ar    1  UNL1       -0.0003
     25 C           5.9273    0.8236   20.5715 C.ar    1  UNL1       -0.0026
     26 C           6.8270   -1.1143   22.9366 C.3     1  UNL1        0.0968
     27 N           5.6523   -1.0105   23.8637 N.3     1  UNL1       -0.2689
     28 C           4.5595    0.0144   23.7907 C.3     1  UNL1        0.0748
     29 C           3.5961   -0.2550   24.9084 C.3     1  UNL1        0.0480
     30 C           4.0934   -1.4463   25.6721 C.3     1  UNL1        0.1278
     31 O           3.4355   -2.0625   26.8710 O.3     1  UNL1       -0.3830
     32 C           5.3643   -1.9133   25.0264 C.3     1  UNL1        0.1017
     33 H           3.9599   -2.8202   27.1739 H       1  UNL1        0.2104
@<TRIPOS>BOND
     1    14    15    1
     2    15    16    2
     3    15    17   am
     4    17     5    1
     5     5     6   ar
     6     6     7   ar
     7     7     8   ar
     8     8     9   ar
     9     9    10   ar
    10     9    11    1
    11    11    12    1
    12    12     1    1
    13     1     2    2
    14     1     3   am
    15     3     4    1
    16     3    19    1
    17    19    26    1
    18    26    27    1
    19    27    28    1
    20    28    29    1
    21    29    30    1
    22    30    31    1
    23    30    32    1
    24    19    20    1
    25    20    21   ar
    26    21    22   ar
    27    22    23   ar
    28    23    24   ar
    29    24    25   ar
    30    12    13    1
    31    10     5   ar
    32    32    27    1
    33    25    20   ar
    34    13     8    1
    35    17    18    1
    36    31    33    1
@<TRIPOS>MOLECULE
*****
 33 36 0 0 0
SMALL
GASTEIGER

@<TRIPOS>ATOM
      1 C           5.7778    1.3898   19.4690 C.2     1  UNL1        0.2665
      2 O           6.9942    2.2658   19.4139 O.2     1  UNL1       -0.2710
      3 N           5.1904    0.8415   18.2024 N.am    1  UNL1       -0.2714
      4 C           5.8193    1.1693   16.8806 C.3     1  UNL1        0.1153
      5 C           2.8556    0.6987   25.1776 C.ar    1  UNL1        0.0502
      6 C           3.3280   -0.7192   25.0506 C.ar    1  UNL1        0.0178
      7 C           4.1088   -1.1444   23.8425 C.ar    1  UNL1        0.0379
      8 C           4.4173   -0.1515   22.7613 C.ar    1  UNL1        0.1353
      9 C           3.9450    1.2665   22.8882 C.ar    1  UNL1        0.0172
     10 C           3.1641    1.6916   24.0964 C.ar    1  UNL1        0.0135
     11 C           4.3971    2.0165   21.6704 C.3     1  UNL1        0.0826
     12 C           5.1489    1.0620   20.7908 C.3     1  UNL1        0.2456
     13 O           5.1614   -0.2779   21.4650 O.3     1  UNL1       -0.4699
     14 C          -0.1943    1.7136   27.5052 C.3     1  UNL1        0.0949
     15 C           0.5866    1.2885   26.2971 C.2     1  UNL1        0.2266
     16 O          -0.1210    1.0280   25.0003 O.2     1  UNL1       -0.2748
     17 N           2.0748    1.1239   26.3857 N.am    1  UNL1       -0.2839
     18 H           2.5392    1.2948   27.2368 H       1  UNL1        0.1549
     19 C           3.9740   -0.0345   18.2576 C.3     1  UNL1        0.1139
     20 C           2.6995    0.4883   18.8512 C.ar    1  UNL1       -0.0029
     21 C           2.2146    1.8623   18.4950 C.ar    1  UNL1       -0.0026
     22 C           0.9401    2.3851   19.0885 C.ar    1  UNL1       -0.0003
     23 C           0.1505    1.5339   20.0383 C.ar    1  UNL1       -0.0000
     24 C           0.6355    0.1599   20.3945 C.ar    1  UNL1       -0.0003
     25 C           1.9100   -0.3630   19.8010 C.ar    1  UNL1       -0.0026
     26 C           4.0322   -1.4334   17.7192 C.3     1  UNL1        0.0968
     27 N           4.4291   -2.5670   18.6178 N.3     1  UNL1       -0.2689
     28 C           3.5169   -3.6339   19.1465 C.3     1  UNL1        0.0748
     29 C           4.3319   -4.5590   20.0009 C.3     1  UNL1        0.0480
     30 C           5.7477   -4.0638   20.0003 C.3     1  UNL1        0.1278
     31 O           6.9011   -4.6898   20.7269 O.3     1  UNL1       -0.3830
     32 C           5.8079   -2.8326   19.1454 C.3     1  UNL1        0.1017
     33 H           7.7058   -4.1743   20.5612 H       1  UNL1        0.2104
@<TRIPOS>BOND
     1    14    15    1
     2    15    16    2
     3    15    17   am
     4    17     5    1
     5     5     6   ar
     6     6     7   ar
     7     7     8   ar
     8     8     9   ar
     9     9    10   ar
    10     9    11    1
    11    11    12    1
    12    12     1    1
    13     1     2    2
    14     1     3   am
    15     3     4    1
    16     3    19    1
    17    19    26    1
    18    26    27    1
    19    27    28    1
    20    28    29    1
    21    29    30    1
    22    30    31    1
    23    30    32    1
    24    19    20    1
    25    20    21   ar
    26    21    22   ar
    27    22    23   ar
    28    23    24   ar
    29    24    25   ar
    30    12    13    1
    31    10     5   ar
    32    32    27    1
    33    25    20   ar
    34    13     8    1
    35    17    18    1
    36    31    33    1
@<TRIPOS>MOLECULE
*****
 33 36 0 0 0
SMALL
GASTEIGER

@<TRIPOS>ATOM
      1 C          -8.9007  -19.9931   23.2924 C.2     1  UNL1        0.2665
      2 O          -9.1607  -20.8249   24.5132 O.2     1  UNL1       -0.2710
      3 N         -10.0289  -19.2582   22.6313 N.am    1  UNL1       -0.2714
      4 C         -11.4171  -19.3549   23.1912 C.3     1  UNL1        0.1153
      5 C          -2.8458  -18.9697   21.3187 C.ar    1  UNL1        0.0502
      6 C          -3.0976  -20.1900   20.4836 C.ar    1  UNL1        0.0178
      7 C          -4.4257  -20.8840   20.5509 C.ar    1  UNL1        0.0379
      8 C          -5.5020  -20.3576   21.4533 C.ar    1  UNL1        0.1353
      9 C          -5.2503  -19.1373   22.2884 C.ar    1  UNL1        0.0172
     10 C          -3.9222  -18.4434   22.2211 C.ar    1  UNL1        0.0135
     11 C          -6.4928  -18.8522   23.0790 C.3     1  UNL1        0.0826
     12 C          -7.5124  -19.8963   22.7325 C.3     1  UNL1        0.2456
     13 O          -6.9001  -20.8267   21.7277 O.3     1  UNL1       -0.4699
     14 C           0.1987  -16.8235   19.9495 C.3     1  UNL1        0.0949
     15 C          -1.1294  -17.5175   20.0168 C.2     1  UNL1        0.2266
     16 O          -2.0692  -17.4532   18.8495 O.2     1  UNL1       -0.2748
     17 N          -1.5177  -18.2757   21.2514 N.am    1  UNL1       -0.2839
     18 H          -0.9009  -18.3179   22.0175 H       1  UNL1        0.1549
     19 C          -9.7688  -18.4264   21.4104 C.3     1  UNL1        0.1139
     20 C          -9.5385  -19.0907   20.0854 C.ar    1  UNL1       -0.0029
     21 C         -10.6973  -19.6534   19.3171 C.ar    1  UNL1       -0.0026
     22 C         -10.4670  -20.3178   17.9921 C.ar    1  UNL1       -0.0003
     23 C          -9.0778  -20.4194   17.4355 C.ar    1  UNL1       -0.0000
     24 C          -7.9189  -19.8567   18.2039 C.ar    1  UNL1       -0.0003
     25 C          -8.1492  -19.1924   19.5288 C.ar    1  UNL1       -0.0026
     26 C          -9.7391  -16.9303   21.5145 C.3     1  UNL1        0.0968
     27 N          -9.1319  -16.2742   22.7191 N.3     1  UNL1       -0.2689
     28 C          -9.7552  -16.1805   24.0801 C.3     1  UNL1        0.0748
     29 C          -8.8033  -15.4451   24.9763 C.3     1  UNL1        0.0480
     30 C          -7.5917  -15.0842   24.1690 C.3     1  UNL1        0.1278
     31 O          -6.3883  -14.3413   24.6690 O.3     1  UNL1       -0.3830
     32 C          -7.7947  -15.5966   22.7739 C.3     1  UNL1        0.1017
     33 H          -5.7489  -14.2382   23.9469 H       1  UNL1        0.2104
@<TRIPOS>BOND
     1    14    15    1
     2    15    16    2
     3    15    17   am
     4    17     5    1
     5     5     6   ar
     6     6     7   ar
     7     7     8   ar
     8     8     9   ar
     9     9    10   ar
    10     9    11    1
    11    11    12    1
    12    12     1    1
    13     1     2    2
    14     1     3   am
    15     3     4    1
    16     3    19    1
    17    19    26    1
    18    26    27    1
    19    27    28    1
    20    28    29    1
    21    29    30    1
    22    30    31    1
    23    30    32    1
    24    19    20    1
    25    20    21   ar
    26    21    22   ar
    27    22    23   ar
    28    23    24   ar
    29    24    25   ar
    30    12    13    1
    31    10     5   ar
    32    32    27    1
    33    25    20   ar
    34    13     8    1
    35    17    18    1
    36    31    33    1
