@<TRIPOS>MOLECULE
*****
 48 52 0 0 0
SMALL
GASTEIGER

@<TRIPOS>ATOM
      1 C           2.7256    1.3972   22.2136 C.3     1  UNL1        0.2187
      2 C           2.1669    2.7463   21.8703 C.3     1  UNL1        0.0526
      3 C           2.9776    3.7081   21.0532 C.3     1  UNL1        0.0257
      4 C           4.3470    3.3208   20.5793 C.3     1  UNL1        0.0940
      5 N           4.9058    1.9717   20.9225 N.am    1  UNL1       -0.2720
      6 C           6.2752    1.5844   20.4486 C.2     1  UNL1        0.2506
      7 O           6.8340    0.2354   20.7918 O.2     1  UNL1       -0.2699
      8 C           4.0951    1.0100   21.7396 C.3     1  UNL1        0.1425
      9 N           0.9916    2.3484   27.2472 N.pl3   1  UNL1       -0.3017
     10 C           2.3282    2.4408   26.5728 C.3     1  UNL1        0.1124
     11 C           2.4607    2.0930   25.1197 C.3     1  UNL1        0.1149
     12 N           1.2565    1.6527   24.3411 N.am    1  UNL1       -0.2732
     13 C           1.3890    1.3048   22.8880 C.2     1  UNL1        0.2637
     14 O           0.1849    0.8646   22.1094 O.2     1  UNL1       -0.2711
     15 C          -0.0801    1.5603   25.0155 C.3     1  UNL1        0.1149
     16 C          -0.2126    1.9082   26.4687 C.3     1  UNL1        0.1124
     17 C           0.9078    1.6143   29.7381 C.ar    1  UNL1        0.1518
     18 C           0.7753    1.9622   31.1911 C.ar    1  UNL1        0.0382
     19 C           0.5942    3.3921   31.6065 C.ar    1  UNL1        0.0032
     20 C           0.5455    4.4741   30.5688 C.ar    1  UNL1        0.0015
     21 C           0.6779    4.1262   29.1157 C.ar    1  UNL1        0.0176
     22 C           0.8591    2.6963   28.7004 C.ar    1  UNL1        0.0824
     23 O           1.0889    0.1844   29.3227 O.3     1  UNL1       -0.4715
     24 C           2.3435   -0.5506   29.6914 C.3     1  UNL1        0.2374
     25 C           3.4339   -0.7289   28.6768 C.3     1  UNL1        0.1894
     26 C           3.9201   -1.2914   26.1874 C.3     1  UNL1        0.1743
     27 O           3.2022   -1.5895   27.4703 O.3     1  UNL1       -0.3471
     28 C           7.0860    2.5463   19.6314 C.ar    1  UNL1        0.0766
     29 C           7.9365    3.5773   20.3122 C.ar    1  UNL1        0.1033
     30 N           8.7472    4.5392   19.4951 N.ar    1  UNL1       -0.2422
     31 C           8.7074    4.4698   17.9972 C.ar    1  UNL1        0.0988
     32 C           7.8568    3.4387   17.3164 C.ar    1  UNL1        0.0247
     33 C           7.0462    2.4770   18.1335 C.ar    1  UNL1        0.0788
     34 C           6.1956    1.4459   17.4529 C.3     1  UNL1        0.4188
     35 F           5.3451    0.4146   16.7722 F       1  UNL1       -0.1659
     36 F           7.3607    0.5014   17.4278 F       1  UNL1       -0.1659
     37 F           5.0305    2.3903   17.4779 F       1  UNL1       -0.1659
     38 O           2.8202    0.0161   22.7910 O.3     1  UNL1       -0.4722
     39 C           3.2152   -1.1370   21.9167 C.ar    1  UNL1        0.1390
     40 C           2.7070   -1.2184   20.5077 C.ar    1  UNL1        0.0369
     41 C           3.1021   -2.3714   19.6334 C.ar    1  UNL1        0.0070
     42 C           4.0053   -3.4430   20.1680 C.ar    1  UNL1        0.0716
     43 C           4.5135   -3.3616   21.5769 C.ar    1  UNL1        0.0070
     44 C           4.1184   -2.2086   22.4513 C.ar    1  UNL1        0.0369
     45 C           4.4004   -4.5960   19.2937 C.3     1  UNL1        0.4186
     46 F           4.7956   -5.7491   18.4194 F       1  UNL1       -0.1659
     47 F           5.8079   -4.5001   19.8034 F       1  UNL1       -0.1659
     48 F           2.9930   -4.6920   18.7840 F       1  UNL1       -0.1659
@<TRIPOS>BOND
     1    26    27    1
     2    27    25    1
     3    25    24    1
     4    24    23    1
     5    23    17    1
     6    17    18   ar
     7    18    19   ar
     8    19    20   ar
     9    20    21   ar
    10    21    22   ar
    11    22     9    1
    12     9    10    1
    13    10    11    1
    14    11    12    1
    15    12    13   am
    16    13    14    2
    17    13     1    1
    18     1    38    1
    19    38    39    1
    20    39    40   ar
    21    40    41   ar
    22    41    42   ar
    23    42    45    1
    24    45    46    1
    25    45    47    1
    26    45    48    1
    27    42    43   ar
    28    43    44   ar
    29     1     2    1
    30     2     3    1
    31     3     4    1
    32     4     5    1
    33     5     6   am
    34     6     7    2
    35     6    28    1
    36    28    29   ar
    37    29    30   ar
    38    30    31   ar
    39    31    32   ar
    40    32    33   ar
    41    33    34    1
    42    34    35    1
    43    34    36    1
    44    34    37    1
    45     5     8    1
    46    12    15    1
    47    15    16    1
    48    22    17   ar
    49    16     9    1
    50     8     1    1
    51    44    39   ar
    52    33    28   ar
@<TRIPOS>MOLECULE
*****
 48 52 0 0 0
SMALL
GASTEIGER

@<TRIPOS>ATOM
      1 C           3.6142    0.8233   23.4034 C.3     1  UNL1        0.2187
      2 C           4.1734    2.2148   23.4364 C.3     1  UNL1        0.0526
      3 C           3.4871    3.3169   22.6851 C.3     1  UNL1        0.0257
      4 C           2.2417    3.0276   21.9009 C.3     1  UNL1        0.0940
      5 N           1.6824    1.6360   21.8679 N.am    1  UNL1       -0.2720
      6 C           0.4370    1.3466   21.0836 C.2     1  UNL1        0.2506
      7 O          -0.1222   -0.0448   21.0506 O.2     1  UNL1       -0.2699
      8 C           2.3687    0.5340   22.6192 C.3     1  UNL1        0.1425
      9 N           4.2773    0.1112   28.7235 N.pl3   1  UNL1       -0.3017
     10 C           3.0818    0.3317   27.8447 C.3     1  UNL1        0.1124
     11 C           3.2593    0.4956   26.3643 C.3     1  UNL1        0.1149
     12 N           4.6322    0.4390   25.7626 N.am    1  UNL1       -0.2732
     13 C           4.8096    0.6029   24.2822 C.2     1  UNL1        0.2637
     14 O           6.1825    0.5463   23.6806 O.2     1  UNL1       -0.2711
     15 C           5.8277    0.2185   26.6414 C.3     1  UNL1        0.1149
     16 C           5.6502    0.0546   28.1219 C.3     1  UNL1        0.1124
     17 C           3.2550    0.9214   30.9704 C.ar    1  UNL1        0.1518
     18 C           3.0776    0.7575   32.4508 C.ar    1  UNL1        0.0382
     19 C           3.7449   -0.3805   33.1647 C.ar    1  UNL1        0.0032
     20 C           4.5897   -1.3545   32.3982 C.ar    1  UNL1        0.0015
     21 C           4.7672   -1.1906   30.9179 C.ar    1  UNL1        0.0176
     22 C           4.0998   -0.0527   30.2039 C.ar    1  UNL1        0.0824
     23 O           2.5876    2.0593   30.2565 O.3     1  UNL1       -0.4715
     24 C           1.1160    2.2929   30.4286 C.3     1  UNL1        0.2374
     25 C           0.1383    1.6316   29.5030 C.3     1  UNL1        0.1894
     26 C          -1.2181   -0.4716   28.8052 C.3     1  UNL1        0.1743
     27 O          -0.3638    0.2506   29.8045 O.3     1  UNL1       -0.3471
     28 C          -0.2493    2.4488   20.3323 C.ar    1  UNL1        0.0766
     29 C          -1.4408    3.1356   20.9310 C.ar    1  UNL1        0.1033
     30 N          -2.1271    4.2378   20.1797 N.ar    1  UNL1       -0.2422
     31 C          -1.6219    4.6530   18.8298 C.ar    1  UNL1        0.0988
     32 C          -0.4303    3.9660   18.2311 C.ar    1  UNL1        0.0247
     33 C           0.2559    2.8640   18.9824 C.ar    1  UNL1        0.0788
     34 C           1.4475    2.1771   18.3838 C.3     1  UNL1        0.4188
     35 F           2.6390    1.4900   17.7851 F       1  UNL1       -0.1659
     36 F           0.5904    0.9977   18.0311 F       1  UNL1       -0.1659
     37 F           2.3046    3.3565   18.7363 F       1  UNL1       -0.1659
     38 O           3.4702   -0.6447   23.6756 O.3     1  UNL1       -0.4722
     39 C           3.7301   -1.6391   22.5830 C.ar    1  UNL1        0.1390
     40 C           3.2747   -1.3513   21.1831 C.ar    1  UNL1        0.0369
     41 C           3.5346   -2.3457   20.0905 C.ar    1  UNL1        0.0070
     42 C           4.2498   -3.6278   20.3979 C.ar    1  UNL1        0.0716
     43 C           4.7051   -3.9157   21.7978 C.ar    1  UNL1        0.0070
     44 C           4.4452   -2.9213   22.8904 C.ar    1  UNL1        0.0369
     45 C           4.5097   -4.6223   19.3054 C.3     1  UNL1        0.4186
     46 F           4.7695   -5.6167   18.2129 F       1  UNL1       -0.1659
     47 F           3.2658   -5.3680   19.6884 F       1  UNL1       -0.1659
     48 F           5.7535   -3.8765   18.9223 F       1  UNL1       -0.1659
@<TRIPOS>BOND
     1    26    27    1
     2    27    25    1
     3    25    24    1
     4    24    23    1
     5    23    17    1
     6    17    18   ar
     7    18    19   ar
     8    19    20   ar
     9    20    21   ar
    10    21    22   ar
    11    22     9    1
    12     9    10    1
    13    10    11    1
    14    11    12    1
    15    12    13   am
    16    13    14    2
    17    13     1    1
    18     1    38    1
    19    38    39    1
    20    39    40   ar
    21    40    41   ar
    22    41    42   ar
    23    42    45    1
    24    45    46    1
    25    45    47    1
    26    45    48    1
    27    42    43   ar
    28    43    44   ar
    29     1     2    1
    30     2     3    1
    31     3     4    1
    32     4     5    1
    33     5     6   am
    34     6     7    2
    35     6    28    1
    36    28    29   ar
    37    29    30   ar
    38    30    31   ar
    39    31    32   ar
    40    32    33   ar
    41    33    34    1
    42    34    35    1
    43    34    36    1
    44    34    37    1
    45     5     8    1
    46    12    15    1
    47    15    16    1
    48    22    17   ar
    49    16     9    1
    50     8     1    1
    51    44    39   ar
    52    33    28   ar
@<TRIPOS>MOLECULE
*****
 48 52 0 0 0
SMALL
GASTEIGER

@<TRIPOS>ATOM
      1 C           5.0695    0.6186   29.5640 C.3     1  UNL1        0.2187
      2 C           5.7520    1.5877   28.6448 C.3     1  UNL1        0.0526
      3 C           4.9860    2.7415   28.0684 C.3     1  UNL1        0.0257
      4 C           3.5374    2.9261   28.4113 C.3     1  UNL1        0.0940
      5 N           2.8549    1.9569   29.3306 N.am    1  UNL1       -0.2720
      6 C           1.4063    2.1415   29.6734 C.2     1  UNL1        0.2506
      7 O           0.7238    1.1724   30.5926 O.2     1  UNL1       -0.2699
      8 C           3.6209    0.8032   29.9068 C.3     1  UNL1        0.1425
      9 N           7.2383   -3.7225   27.1765 N.pl3   1  UNL1       -0.3017
     10 C           5.8606   -3.1299   27.2034 C.3     1  UNL1        0.1124
     11 C           5.5969   -1.8804   27.9902 C.3     1  UNL1        0.1149
     12 N           6.7109   -1.2235   28.7502 N.am    1  UNL1       -0.2732
     13 C           6.4472    0.0260   29.5371 C.2     1  UNL1        0.2637
     14 O           7.5611    0.6829   30.2970 O.2     1  UNL1       -0.2711
     15 C           8.0886   -1.8161   28.7234 C.3     1  UNL1        0.1149
     16 C           8.3523   -3.0657   27.9365 C.3     1  UNL1        0.1124
     17 C           7.5381   -6.3016   27.0832 C.ar    1  UNL1        0.1518
     18 C           7.8018   -7.5511   26.2963 C.ar    1  UNL1        0.0382
     19 C           8.0294   -7.4710   24.8158 C.ar    1  UNL1        0.0032
     20 C           7.9934   -6.1415   24.1223 C.ar    1  UNL1        0.0015
     21 C           7.7297   -4.8921   24.9091 C.ar    1  UNL1        0.0176
     22 C           7.5020   -4.9721   26.3896 C.ar    1  UNL1        0.0824
     23 O           7.3104   -6.3816   28.5636 O.3     1  UNL1       -0.4715
     24 C           8.4776   -6.5196   29.4956 C.3     1  UNL1        0.2374
     25 C           8.4009   -5.9536   30.8826 C.3     1  UNL1        0.1894
     26 C           6.6445   -4.0626   31.1814 C.3     1  UNL1        0.1743
     27 O           7.0871   -5.4748   31.4256 O.3     1  UNL1       -0.3471
     28 C           0.6403    3.2952   29.0971 C.ar    1  UNL1        0.0766
     29 C           0.6519    4.6248   29.7913 C.ar    1  UNL1        0.1033
     30 N          -0.1141    5.7786   29.2150 N.ar    1  UNL1       -0.2422
     31 C          -0.8918    5.6026   27.9445 C.ar    1  UNL1        0.0988
     32 C          -0.9035    4.2729   27.2502 C.ar    1  UNL1        0.0247
     33 C          -0.1375    3.1193   27.8265 C.ar    1  UNL1        0.0788
     34 C          -0.1491    1.7897   27.1324 C.3     1  UNL1        0.4188
     35 F          -0.1606    0.4600   26.4381 F       1  UNL1       -0.1659
     36 F           1.0472    2.2002   26.3260 F       1  UNL1       -0.1659
     37 F          -1.3454    1.3790   27.9387 F       1  UNL1       -0.1659
     38 O           4.8654   -0.5563   30.4738 O.3     1  UNL1       -0.4722
     39 C           4.7975   -0.3523   31.9584 C.ar    1  UNL1        0.1390
     40 C           4.4678   -1.5053   32.8595 C.ar    1  UNL1        0.0369
     41 C           4.3999   -1.3013   34.3441 C.ar    1  UNL1        0.0070
     42 C           4.6615    0.0555   34.9274 C.ar    1  UNL1        0.0716
     43 C           4.9911    1.2085   34.0263 C.ar    1  UNL1        0.0070
     44 C           5.0591    1.0045   32.5418 C.ar    1  UNL1        0.0369
     45 C           4.5936    0.2596   36.4119 C.3     1  UNL1        0.4186
     46 F           4.5255    0.4636   37.8964 F       1  UNL1       -0.1659
     47 F           3.4344    1.1942   36.2303 F       1  UNL1       -0.1659
     48 F           5.7526   -0.6750   36.5936 F       1  UNL1       -0.1659
@<TRIPOS>BOND
     1    26    27    1
     2    27    25    1
     3    25    24    1
     4    24    23    1
     5    23    17    1
     6    17    18   ar
     7    18    19   ar
     8    19    20   ar
     9    20    21   ar
    10    21    22   ar
    11    22     9    1
    12     9    10    1
    13    10    11    1
    14    11    12    1
    15    12    13   am
    16    13    14    2
    17    13     1    1
    18     1    38    1
    19    38    39    1
    20    39    40   ar
    21    40    41   ar
    22    41    42   ar
    23    42    45    1
    24    45    46    1
    25    45    47    1
    26    45    48    1
    27    42    43   ar
    28    43    44   ar
    29     1     2    1
    30     2     3    1
    31     3     4    1
    32     4     5    1
    33     5     6   am
    34     6     7    2
    35     6    28    1
    36    28    29   ar
    37    29    30   ar
    38    30    31   ar
    39    31    32   ar
    40    32    33   ar
    41    33    34    1
    42    34    35    1
    43    34    36    1
    44    34    37    1
    45     5     8    1
    46    12    15    1
    47    15    16    1
    48    22    17   ar
    49    16     9    1
    50     8     1    1
    51    44    39   ar
    52    33    28   ar
@<TRIPOS>MOLECULE
*****
 48 52 0 0 0
SMALL
GASTEIGER

@<TRIPOS>ATOM
      1 C           5.4007   -0.7138   27.8693 C.3     1  UNL1        0.2187
      2 C           6.0289    0.6319   27.6584 C.3     1  UNL1        0.0526
      3 C           5.5354    1.8192   28.4309 C.3     1  UNL1        0.0257
      4 C           4.4138    1.6609   29.4142 C.3     1  UNL1        0.0940
      5 N           3.7856    0.3151   29.6250 N.am    1  UNL1       -0.2720
      6 C           2.6640    0.1567   30.6082 C.2     1  UNL1        0.2506
      7 O           2.0358   -1.1890   30.8191 O.2     1  UNL1       -0.2699
      8 C           4.2791   -0.8722   28.8525 C.3     1  UNL1        0.1425
      9 N           5.1309   -2.3482   22.7209 N.pl3   1  UNL1       -0.3017
     10 C           4.1035   -1.9969   23.7558 C.3     1  UNL1        0.1124
     11 C           4.5359   -1.5692   25.1269 C.3     1  UNL1        0.1149
     12 N           5.9958   -1.4929   25.4632 N.am    1  UNL1       -0.2732
     13 C           6.4281   -1.0652   26.8344 C.2     1  UNL1        0.2637
     14 O           7.8879   -0.9889   27.1707 O.2     1  UNL1       -0.2711
     15 C           7.0232   -1.8443   24.4284 C.3     1  UNL1        0.1149
     16 C           6.5907   -2.2719   23.0572 C.3     1  UNL1        0.1124
     17 C           4.3380   -1.7451   20.3214 C.ar    1  UNL1        0.1518
     18 C           3.9055   -2.1728   18.9503 C.ar    1  UNL1        0.0382
     19 C           3.8336   -3.6313   18.6074 C.ar    1  UNL1        0.0032
     20 C           4.1941   -4.6621   19.6357 C.ar    1  UNL1        0.0015
     21 C           4.6266   -4.2344   21.0068 C.ar    1  UNL1        0.0176
     22 C           4.6985   -2.7759   21.3497 C.ar    1  UNL1        0.0824
     23 O           4.4099   -0.2866   20.6642 O.3     1  UNL1       -0.4715
     24 C           3.1712    0.4467   21.0861 C.3     1  UNL1        0.2374
     25 C           1.8487   -0.2611   21.0999 C.3     1  UNL1        0.1894
     26 C           1.3044    0.5900   18.7062 C.3     1  UNL1        0.1743
     27 O           1.0308   -0.3467   19.8453 O.3     1  UNL1       -0.3471
     28 C           2.1705    1.3441   31.3807 C.ar    1  UNL1        0.0766
     29 C           2.7847    1.6845   32.7062 C.ar    1  UNL1        0.1033
     30 N           2.2912    2.8719   33.4787 N.ar    1  UNL1       -0.2422
     31 C           1.1835    3.7188   32.9257 C.ar    1  UNL1        0.0988
     32 C           0.5693    3.3783   31.6001 C.ar    1  UNL1        0.0247
     33 C           1.0628    2.1911   30.8277 C.ar    1  UNL1        0.0788
     34 C           0.4487    1.8506   29.5022 C.3     1  UNL1        0.4188
     35 F          -0.1655    1.5101   28.1767 F       1  UNL1       -0.1659
     36 F          -0.5398    0.9562   30.1899 F       1  UNL1       -0.1659
     37 F           1.4371    2.7450   28.8144 F       1  UNL1       -0.1659
     38 O           5.1294   -2.1816   27.7207 O.3     1  UNL1       -0.4722
     39 C           5.8632   -3.1704   28.5773 C.ar    1  UNL1        0.1390
     40 C           6.2890   -2.7905   29.9645 C.ar    1  UNL1        0.0369
     41 C           7.0228   -3.7793   30.8211 C.ar    1  UNL1        0.0070
     42 C           7.3309   -5.1481   30.2904 C.ar    1  UNL1        0.0716
     43 C           6.9051   -5.5280   28.9032 C.ar    1  UNL1        0.0070
     44 C           6.1713   -4.5392   28.0466 C.ar    1  UNL1        0.0369
     45 C           8.0647   -6.1369   31.1469 C.3     1  UNL1        0.4186
     46 F           8.7986   -7.1258   32.0034 F       1  UNL1       -0.1659
     47 F           9.2171   -6.1130   30.1871 F       1  UNL1       -0.1659
     48 F           6.9123   -6.1609   32.1068 F       1  UNL1       -0.1659
@<TRIPOS>BOND
     1    26    27    1
     2    27    25    1
     3    25    24    1
     4    24    23    1
     5    23    17    1
     6    17    18   ar
     7    18    19   ar
     8    19    20   ar
     9    20    21   ar
    10    21    22   ar
    11    22     9    1
    12     9    10    1
    13    10    11    1
    14    11    12    1
    15    12    13   am
    16    13    14    2
    17    13     1    1
    18     1    38    1
    19    38    39    1
    20    39    40   ar
    21    40    41   ar
    22    41    42   ar
    23    42    45    1
    24    45    46    1
    25    45    47    1
    26    45    48    1
    27    42    43   ar
    28    43    44   ar
    29     1     2    1
    30     2     3    1
    31     3     4    1
    32     4     5    1
    33     5     6   am
    34     6     7    2
    35     6    28    1
    36    28    29   ar
    37    29    30   ar
    38    30    31   ar
    39    31    32   ar
    40    32    33   ar
    41    33    34    1
    42    34    35    1
    43    34    36    1
    44    34    37    1
    45     5     8    1
    46    12    15    1
    47    15    16    1
    48    22    17   ar
    49    16     9    1
    50     8     1    1
    51    44    39   ar
    52    33    28   ar
@<TRIPOS>MOLECULE
*****
 48 52 0 0 0
SMALL
GASTEIGER

@<TRIPOS>ATOM
      1 C           2.5610    1.7302   22.3966 C.3     1  UNL1        0.2187
      2 C           3.4039    2.8430   21.8479 C.3     1  UNL1        0.0526
      3 C           4.7203    2.5360   21.1974 C.3     1  UNL1        0.0257
      4 C           5.1936    1.1163   21.0957 C.3     1  UNL1        0.0940
      5 N           4.3506    0.0035   21.6445 N.am    1  UNL1       -0.2720
      6 C           4.8240   -1.4162   21.5428 C.2     1  UNL1        0.2506
      7 O           3.9810   -2.5290   22.0916 O.2     1  UNL1       -0.2699
      8 C           3.0343    0.3105   22.2950 C.3     1  UNL1        0.1425
      9 N          -2.1215    3.5993   20.4395 N.pl3   1  UNL1       -0.3017
     10 C          -1.2503    2.4243   20.1071 C.3     1  UNL1        0.1124
     11 C           0.0201    2.1929   20.8703 C.3     1  UNL1        0.1149
     12 N           0.4194    3.1365   21.9658 N.am    1  UNL1       -0.2732
     13 C           1.6898    2.9052   22.7290 C.2     1  UNL1        0.2637
     14 O           2.0890    3.8488   23.8245 O.2     1  UNL1       -0.2711
     15 C          -0.4518    4.3115   22.2982 C.3     1  UNL1        0.1149
     16 C          -1.7223    4.5429   21.5350 C.3     1  UNL1        0.1124
     17 C          -4.6979    3.3400   20.2273 C.ar    1  UNL1        0.1518
     18 C          -5.9683    3.5714   19.4641 C.ar    1  UNL1        0.0382
     19 C          -5.9328    4.2934   18.1498 C.ar    1  UNL1        0.0032
     20 C          -4.6268    4.7840   17.5987 C.ar    1  UNL1        0.0015
     21 C          -3.3564    4.5526   18.3619 C.ar    1  UNL1        0.0176
     22 C          -3.3920    3.8306   19.6762 C.ar    1  UNL1        0.0824
     23 O          -4.7335    2.6180   21.5417 O.3     1  UNL1       -0.4715
     24 C          -5.2374    3.3184   22.7687 C.3     1  UNL1        0.2374
     25 C          -4.5152    3.1583   24.0736 C.3     1  UNL1        0.1894
     26 C          -4.4344    4.1223   26.4849 C.3     1  UNL1        0.1743
     27 O          -5.2069    3.4988   25.3603 O.3     1  UNL1       -0.3471
     28 C           6.1403   -1.7231   20.8924 C.ar    1  UNL1        0.0766
     29 C           7.3905   -1.7794   21.7194 C.ar    1  UNL1        0.1033
     30 N           8.7068   -2.0863   21.0689 N.ar    1  UNL1       -0.2422
     31 C           8.7730   -2.3370   19.5915 C.ar    1  UNL1        0.0988
     32 C           7.5227   -2.2808   18.7645 C.ar    1  UNL1        0.0247
     33 C           6.2065   -1.9739   19.4149 C.ar    1  UNL1        0.0788
     34 C           4.9563   -1.9176   18.5880 C.3     1  UNL1        0.4188
     35 F           3.7060   -1.8615   17.7611 F       1  UNL1       -0.1659
     36 F           4.6862   -3.3601   18.8983 F       1  UNL1       -0.1659
     37 F           5.2264   -0.4752   18.2776 F       1  UNL1       -0.1659
     38 O           1.4155    1.0255   23.0608 O.3     1  UNL1       -0.4722
     39 C           1.3176    0.9988   24.5574 C.ar    1  UNL1        0.1390
     40 C           0.0057    1.2795   25.2283 C.ar    1  UNL1        0.0369
     41 C          -0.0922    1.2528   26.7249 C.ar    1  UNL1        0.0070
     42 C           1.1217    0.9455   27.5506 C.ar    1  UNL1        0.0716
     43 C           2.4337    0.6648   26.8797 C.ar    1  UNL1        0.0070
     44 C           2.5315    0.6915   25.3831 C.ar    1  UNL1        0.0369
     45 C           1.0239    0.9188   29.0471 C.3     1  UNL1        0.4186
     46 F           0.9261    0.8920   30.5437 F       1  UNL1       -0.1659
     47 F           0.8377   -0.5691   29.0083 F       1  UNL1       -0.1659
     48 F           1.2102    2.4066   29.0860 F       1  UNL1       -0.1659
@<TRIPOS>BOND
     1    26    27    1
     2    27    25    1
     3    25    24    1
     4    24    23    1
     5    23    17    1
     6    17    18   ar
     7    18    19   ar
     8    19    20   ar
     9    20    21   ar
    10    21    22   ar
    11    22     9    1
    12     9    10    1
    13    10    11    1
    14    11    12    1
    15    12    13   am
    16    13    14    2
    17    13     1    1
    18     1    38    1
    19    38    39    1
    20    39    40   ar
    21    40    41   ar
    22    41    42   ar
    23    42    45    1
    24    45    46    1
    25    45    47    1
    26    45    48    1
    27    42    43   ar
    28    43    44   ar
    29     1     2    1
    30     2     3    1
    31     3     4    1
    32     4     5    1
    33     5     6   am
    34     6     7    2
    35     6    28    1
    36    28    29   ar
    37    29    30   ar
    38    30    31   ar
    39    31    32   ar
    40    32    33   ar
    41    33    34    1
    42    34    35    1
    43    34    36    1
    44    34    37    1
    45     5     8    1
    46    12    15    1
    47    15    16    1
    48    22    17   ar
    49    16     9    1
    50     8     1    1
    51    44    39   ar
    52    33    28   ar
@<TRIPOS>MOLECULE
*****
 48 52 0 0 0
SMALL
GASTEIGER

@<TRIPOS>ATOM
      1 C           3.2932    1.5806   26.7224 C.3     1  UNL1        0.2187
      2 C           4.7079    2.0367   26.9242 C.3     1  UNL1        0.0526
      3 C           5.3489    1.9174   28.2751 C.3     1  UNL1        0.0257
      4 C           4.5754    1.3420   29.4241 C.3     1  UNL1        0.0940
      5 N           3.1606    0.8859   29.2224 N.am    1  UNL1       -0.2720
      6 C           2.3870    0.3105   30.3714 C.2     1  UNL1        0.2506
      7 O           0.9724   -0.1456   30.1697 O.2     1  UNL1       -0.2699
      8 C           2.5197    1.0052   27.8715 C.3     1  UNL1        0.1425
      9 N           4.2780   -0.9300   22.0344 N.pl3   1  UNL1       -0.3017
     10 C           3.9570   -1.4042   23.4208 C.3     1  UNL1        0.1124
     11 C           3.7357   -0.4093   24.5214 C.3     1  UNL1        0.1149
     12 N           3.8355    1.0599   24.2355 N.am    1  UNL1       -0.2732
     13 C           3.6143    2.0548   25.3360 C.2     1  UNL1        0.2637
     14 O           3.7141    3.5238   25.0501 O.2     1  UNL1       -0.2711
     15 C           4.1566    1.5340   22.8491 C.3     1  UNL1        0.1149
     16 C           4.3778    0.5390   21.7486 C.3     1  UNL1        0.1124
     17 C           3.4043   -2.2098   19.9490 C.ar    1  UNL1        0.1518
     18 C           3.6256   -3.2048   18.8486 C.ar    1  UNL1        0.0382
     19 C           4.9418   -3.9149   18.7330 C.ar    1  UNL1        0.0032
     20 C           6.0367   -3.6301   19.7178 C.ar    1  UNL1        0.0015
     21 C           5.8154   -2.6352   20.8183 C.ar    1  UNL1        0.0176
     22 C           4.4992   -1.9250   20.9339 C.ar    1  UNL1        0.0824
     23 O           2.0881   -1.4997   20.0646 O.3     1  UNL1       -0.4715
     24 C           1.8148   -0.2857   19.2271 C.3     1  UNL1        0.2374
     25 C           0.6952    0.6424   19.5946 C.3     1  UNL1        0.1894
     26 C           0.5298    1.1890   22.1292 C.3     1  UNL1        0.1743
     27 O          -0.0030    0.4901   20.9135 O.3     1  UNL1       -0.3471
     28 C           3.0281    0.1912   31.7223 C.ar    1  UNL1        0.0766
     29 C           3.7617   -1.0626   32.0962 C.ar    1  UNL1        0.1033
     30 N           4.4028   -1.1819   33.4471 N.ar    1  UNL1       -0.2422
     31 C           4.3101   -0.0474   34.4241 C.ar    1  UNL1        0.0988
     32 C           3.5764    1.2064   34.0501 C.ar    1  UNL1        0.0247
     33 C           2.9354    1.3257   32.6993 C.ar    1  UNL1        0.0788
     34 C           2.2018    2.5794   32.3254 C.3     1  UNL1        0.4188
     35 F           1.4681    3.8332   31.9513 F       1  UNL1       -0.1659
     36 F           3.4976    3.2168   31.9199 F       1  UNL1       -0.1659
     37 F           0.9058    1.9420   32.7308 F       1  UNL1       -0.1659
     38 O           1.9901    1.2891   26.0391 O.3     1  UNL1       -0.4722
     39 C           0.8035    2.1752   26.2779 C.ar    1  UNL1        0.1390
     40 C          -0.5226    1.8340   25.6654 C.ar    1  UNL1        0.0369
     41 C          -1.7092    2.7201   25.9041 C.ar    1  UNL1        0.0070
     42 C          -1.5697    3.9472   26.7553 C.ar    1  UNL1        0.0716
     43 C          -0.2436    4.2884   27.3678 C.ar    1  UNL1        0.0070
     44 C           0.9430    3.4023   27.1291 C.ar    1  UNL1        0.0369
     45 C          -2.7562    4.8333   26.9941 C.3     1  UNL1        0.4186
     46 F          -3.9428    5.7193   27.2329 F       1  UNL1       -0.1659
     47 F          -3.6628    3.6409   26.9130 F       1  UNL1       -0.1659
     48 F          -1.8497    6.0255   27.0752 F       1  UNL1       -0.1659
@<TRIPOS>BOND
     1    26    27    1
     2    27    25    1
     3    25    24    1
     4    24    23    1
     5    23    17    1
     6    17    18   ar
     7    18    19   ar
     8    19    20   ar
     9    20    21   ar
    10    21    22   ar
    11    22     9    1
    12     9    10    1
    13    10    11    1
    14    11    12    1
    15    12    13   am
    16    13    14    2
    17    13     1    1
    18     1    38    1
    19    38    39    1
    20    39    40   ar
    21    40    41   ar
    22    41    42   ar
    23    42    45    1
    24    45    46    1
    25    45    47    1
    26    45    48    1
    27    42    43   ar
    28    43    44   ar
    29     1     2    1
    30     2     3    1
    31     3     4    1
    32     4     5    1
    33     5     6   am
    34     6     7    2
    35     6    28    1
    36    28    29   ar
    37    29    30   ar
    38    30    31   ar
    39    31    32   ar
    40    32    33   ar
    41    33    34    1
    42    34    35    1
    43    34    36    1
    44    34    37    1
    45     5     8    1
    46    12    15    1
    47    15    16    1
    48    22    17   ar
    49    16     9    1
    50     8     1    1
    51    44    39   ar
    52    33    28   ar
@<TRIPOS>MOLECULE
*****
 48 52 0 0 0
SMALL
GASTEIGER

@<TRIPOS>ATOM
      1 C           0.6234    4.6317   21.9913 C.3     1  UNL1        0.2187
      2 C           0.5767    4.3639   20.5161 C.3     1  UNL1        0.0526
      3 C          -0.7177    4.4978   19.7702 C.3     1  UNL1        0.0257
      4 C          -1.9655    4.8994   20.4993 C.3     1  UNL1        0.0940
      5 N          -1.9188    5.1673   21.9746 N.am    1  UNL1       -0.2720
      6 C          -3.1665    5.5690   22.7037 C.2     1  UNL1        0.2506
      7 O          -3.1199    5.8368   24.1789 O.2     1  UNL1       -0.2699
      8 C          -0.6243    5.0334   22.7205 C.3     1  UNL1        0.1425
      9 N           3.2270    0.0107   20.9342 N.pl3   1  UNL1       -0.3017
     10 C           1.7896    0.3617   21.1808 C.3     1  UNL1        0.1124
     11 C           1.4009    1.7850   21.4510 C.3     1  UNL1        0.1149
     12 N           2.4495    2.8574   21.4745 N.am    1  UNL1       -0.2732
     13 C           2.0608    4.2807   21.7447 C.2     1  UNL1        0.2637
     14 O           3.1093    5.3530   21.7682 O.2     1  UNL1       -0.2711
     15 C           3.8869    2.5064   21.2279 C.3     1  UNL1        0.1149
     16 C           4.2756    1.0830   20.9577 C.3     1  UNL1        0.1124
     17 C           3.5891   -1.9441   19.2616 C.ar    1  UNL1        0.1518
     18 C           3.9778   -3.3675   18.9915 C.ar    1  UNL1        0.0382
     19 C           4.3931   -4.2593   20.1238 C.ar    1  UNL1        0.0032
     20 C           4.4198   -3.7278   21.5262 C.ar    1  UNL1        0.0015
     21 C           4.0311   -2.3045   21.7963 C.ar    1  UNL1        0.0176
     22 C           3.6157   -1.4127   20.6640 C.ar    1  UNL1        0.0824
     23 O           3.1737   -1.0523   18.1293 O.3     1  UNL1       -0.4715
     24 C           4.1639   -0.6796   17.0660 C.3     1  UNL1        0.2374
     25 C           5.5908   -0.4005   17.4347 C.3     1  UNL1        0.1894
     26 C           7.3515   -2.0002   18.4791 C.3     1  UNL1        0.1743
     27 O           6.6297   -1.4708   17.2755 O.3     1  UNL1       -0.3471
     28 C          -4.4610    5.7028   21.9577 C.ar    1  UNL1        0.0766
     29 C          -4.7518    6.9510   21.1783 C.ar    1  UNL1        0.1033
     30 N          -6.0463    7.0849   20.4323 N.ar    1  UNL1       -0.2422
     31 C          -7.0499    5.9706   20.4658 C.ar    1  UNL1        0.0988
     32 C          -6.7591    4.7224   21.2453 C.ar    1  UNL1        0.0247
     33 C          -5.4647    4.5886   21.9912 C.ar    1  UNL1        0.0788
     34 C          -5.1738    3.3405   22.7707 C.3     1  UNL1        0.4188
     35 F          -4.8829    2.0922   23.5501 F       1  UNL1       -0.1659
     36 F          -4.5335    2.7324   21.5581 F       1  UNL1       -0.1659
     37 F          -5.8141    3.9484   23.9833 F       1  UNL1       -0.1659
     38 O           1.1693    4.7776   23.3808 O.3     1  UNL1       -0.4722
     39 C           0.6441    3.9121   24.4876 C.ar    1  UNL1        0.1390
     40 C           0.1523    2.5271   24.1876 C.ar    1  UNL1        0.0369
     41 C          -0.3729    1.6616   25.2944 C.ar    1  UNL1        0.0070
     42 C          -0.4061    2.1809   26.7012 C.ar    1  UNL1        0.0716
     43 C           0.0857    3.5658   27.0013 C.ar    1  UNL1        0.0070
     44 C           0.6109    4.4314   25.8944 C.ar    1  UNL1        0.0369
     45 C          -0.9313    1.3154   27.8081 C.3     1  UNL1        0.4186
     46 F          -1.4565    0.4499   28.9150 F       1  UNL1       -0.1659
     47 F          -2.2572    2.0117   27.7233 F       1  UNL1       -0.1659
     48 F           0.3946    0.6192   27.8929 F       1  UNL1       -0.1659
@<TRIPOS>BOND
     1    26    27    1
     2    27    25    1
     3    25    24    1
     4    24    23    1
     5    23    17    1
     6    17    18   ar
     7    18    19   ar
     8    19    20   ar
     9    20    21   ar
    10    21    22   ar
    11    22     9    1
    12     9    10    1
    13    10    11    1
    14    11    12    1
    15    12    13   am
    16    13    14    2
    17    13     1    1
    18     1    38    1
    19    38    39    1
    20    39    40   ar
    21    40    41   ar
    22    41    42   ar
    23    42    45    1
    24    45    46    1
    25    45    47    1
    26    45    48    1
    27    42    43   ar
    28    43    44   ar
    29     1     2    1
    30     2     3    1
    31     3     4    1
    32     4     5    1
    33     5     6   am
    34     6     7    2
    35     6    28    1
    36    28    29   ar
    37    29    30   ar
    38    30    31   ar
    39    31    32   ar
    40    32    33   ar
    41    33    34    1
    42    34    35    1
    43    34    36    1
    44    34    37    1
    45     5     8    1
    46    12    15    1
    47    15    16    1
    48    22    17   ar
    49    16     9    1
    50     8     1    1
    51    44    39   ar
    52    33    28   ar
@<TRIPOS>MOLECULE
*****
 48 52 0 0 0
SMALL
GASTEIGER

@<TRIPOS>ATOM
      1 C           5.4788   -0.2782   28.8556 C.3     1  UNL1        0.2187
      2 C           6.0021    0.6343   27.7862 C.3     1  UNL1        0.0526
      3 C           5.0771    1.5983   27.1042 C.3     1  UNL1        0.0257
      4 C           3.6289    1.6498   27.4916 C.3     1  UNL1        0.0940
      5 N           3.1057    0.7372   28.5610 N.am    1  UNL1       -0.2720
      6 C           1.6575    0.7887   28.9484 C.2     1  UNL1        0.2506
      7 O           1.1343   -0.1238   30.0177 O.2     1  UNL1       -0.2699
      8 C           4.0307   -0.2268   29.2429 C.3     1  UNL1        0.1425
      9 N           8.2007   -4.2404   26.3772 N.pl3   1  UNL1       -0.3017
     10 C           6.7605   -3.8215   26.3954 C.3     1  UNL1        0.1124
     11 C           6.3333   -2.6404   27.2154 C.3     1  UNL1        0.1149
     12 N           7.3463   -1.8782   28.0173 N.am    1  UNL1       -0.2732
     13 C           6.9190   -0.6972   28.8374 C.2     1  UNL1        0.2637
     14 O           7.9320    0.0650   29.6392 O.2     1  UNL1       -0.2711
     15 C           8.7865   -2.2972   27.9992 C.3     1  UNL1        0.1149
     16 C           9.2137   -3.4783   27.1790 C.3     1  UNL1        0.1124
     17 C           9.1088   -6.6705   26.2345 C.ar    1  UNL1        0.1518
     18 C           9.5359   -7.8515   25.4144 C.ar    1  UNL1        0.0382
     19 C           9.4823   -7.7836   23.9169 C.ar    1  UNL1        0.0032
     20 C           9.0015   -6.5347   23.2395 C.ar    1  UNL1        0.0015
     21 C           8.5743   -5.3536   24.0596 C.ar    1  UNL1        0.0176
     22 C           8.6280   -5.4215   25.5571 C.ar    1  UNL1        0.0824
     23 O           9.1624   -6.7384   27.7320 O.3     1  UNL1       -0.4715
     24 C           7.9077   -6.9819   28.5171 C.3     1  UNL1        0.2374
     25 C           7.3586   -5.9058   29.4063 C.3     1  UNL1        0.1894
     26 C           6.8631   -5.0393   31.8050 C.3     1  UNL1        0.1743
     27 O           7.1486   -6.1745   30.8670 O.3     1  UNL1       -0.3471
     28 C           0.7325    1.7527   28.2664 C.ar    1  UNL1        0.0766
     29 C          -0.0553    1.3154   27.0672 C.ar    1  UNL1        0.1033
     30 N          -0.9804    2.2794   26.3852 N.ar    1  UNL1       -0.2422
     31 C          -1.1175    3.6807   26.9024 C.ar    1  UNL1        0.0988
     32 C          -0.3296    4.1180   28.1016 C.ar    1  UNL1        0.0247
     33 C           0.5953    3.1541   28.7836 C.ar    1  UNL1        0.0788
     34 C           1.3832    3.5913   29.9827 C.3     1  UNL1        0.4188
     35 F           2.1710    4.0286   31.1820 F       1  UNL1       -0.1659
     36 F           0.3408    2.9985   30.8838 F       1  UNL1       -0.1659
     37 F           2.4256    4.1842   29.0818 F       1  UNL1       -0.1659
     38 O           5.4558   -1.3363   29.9186 O.3     1  UNL1       -0.4722
     39 C           5.2285   -0.9549   31.3515 C.ar    1  UNL1        0.1390
     40 C           5.5545    0.4325   31.8191 C.ar    1  UNL1        0.0369
     41 C           5.3272    0.8138   33.2519 C.ar    1  UNL1        0.0070
     42 C           4.7739   -0.1923   34.2171 C.ar    1  UNL1        0.0716
     43 C           4.4479   -1.5797   33.7494 C.ar    1  UNL1        0.0070
     44 C           4.6752   -1.9610   32.3166 C.ar    1  UNL1        0.0369
     45 C           4.5466    0.1889   35.6499 C.3     1  UNL1        0.4186
     46 F           4.3193    0.5701   37.0827 F       1  UNL1       -0.1659
     47 F           5.6334   -0.7543   36.0732 F       1  UNL1       -0.1659
     48 F           3.4598    1.1322   35.2266 F       1  UNL1       -0.1659
@<TRIPOS>BOND
     1    26    27    1
     2    27    25    1
     3    25    24    1
     4    24    23    1
     5    23    17    1
     6    17    18   ar
     7    18    19   ar
     8    19    20   ar
     9    20    21   ar
    10    21    22   ar
    11    22     9    1
    12     9    10    1
    13    10    11    1
    14    11    12    1
    15    12    13   am
    16    13    14    2
    17    13     1    1
    18     1    38    1
    19    38    39    1
    20    39    40   ar
    21    40    41   ar
    22    41    42   ar
    23    42    45    1
    24    45    46    1
    25    45    47    1
    26    45    48    1
    27    42    43   ar
    28    43    44   ar
    29     1     2    1
    30     2     3    1
    31     3     4    1
    32     4     5    1
    33     5     6   am
    34     6     7    2
    35     6    28    1
    36    28    29   ar
    37    29    30   ar
    38    30    31   ar
    39    31    32   ar
    40    32    33   ar
    41    33    34    1
    42    34    35    1
    43    34    36    1
    44    34    37    1
    45     5     8    1
    46    12    15    1
    47    15    16    1
    48    22    17   ar
    49    16     9    1
    50     8     1    1
    51    44    39   ar
    52    33    28   ar
@<TRIPOS>MOLECULE
*****
 48 52 0 0 0
SMALL
GASTEIGER

@<TRIPOS>ATOM
      1 C          -0.6877    4.2840   21.9149 C.3     1  UNL1        0.2187
      2 C          -0.4966    5.7316   21.5714 C.3     1  UNL1        0.0526
      3 C          -1.6661    6.5566   21.1222 C.3     1  UNL1        0.0257
      4 C          -3.0266    5.9340   21.0164 C.3     1  UNL1        0.0940
      5 N          -3.2177    4.4863   21.3599 N.am    1  UNL1       -0.2720
      6 C          -4.5782    3.8637   21.2541 C.2     1  UNL1        0.2506
      7 O          -4.7693    2.4161   21.5975 O.2     1  UNL1       -0.2699
      8 C          -2.0482    3.6614   21.8091 C.3     1  UNL1        0.1425
      9 N           3.7447    2.7322   19.2324 N.pl3   1  UNL1       -0.3017
     10 C           2.2730    2.5959   18.9764 C.3     1  UNL1        0.1124
     11 C           1.2861    3.1586   19.9559 C.3     1  UNL1        0.1149
     12 N           1.7709    3.8577   21.1914 N.am    1  UNL1       -0.2732
     13 C           0.7840    4.4204   22.1708 C.2     1  UNL1        0.2637
     14 O           1.2688    5.1194   23.4062 O.2     1  UNL1       -0.2711
     15 C           3.2426    3.9940   21.4473 C.3     1  UNL1        0.1149
     16 C           4.2295    3.4313   20.4678 C.3     1  UNL1        0.1124
     17 C           4.9001    0.6843   18.1273 C.ar    1  UNL1        0.1518
     18 C           5.8870    0.1216   17.1478 C.ar    1  UNL1        0.0382
     19 C           6.7053    1.0441   16.2939 C.ar    1  UNL1        0.0032
     20 C           6.5368    2.5293   16.4194 C.ar    1  UNL1        0.0015
     21 C           5.5500    3.0920   17.3989 C.ar    1  UNL1        0.0176
     22 C           4.7316    2.1695   18.2528 C.ar    1  UNL1        0.0824
     23 O           4.0817   -0.2382   18.9813 O.3     1  UNL1       -0.4715
     24 C           4.1344   -1.7192   18.7493 C.3     1  UNL1        0.2374
     25 C           3.5797   -2.6597   19.7778 C.3     1  UNL1        0.1894
     26 C           4.5869   -3.7103   21.9300 C.3     1  UNL1        0.1743
     27 O           4.4768   -3.6666   20.4347 O.3     1  UNL1       -0.3471
     28 C          -5.7477    4.6886   20.8048 C.ar    1  UNL1        0.0766
     29 C          -6.5622    5.4458   21.8114 C.ar    1  UNL1        0.1033
     30 N          -7.7317    6.2708   21.3622 N.ar    1  UNL1       -0.2422
     31 C          -8.0867    6.3386   19.9064 C.ar    1  UNL1        0.0988
     32 C          -7.2721    5.5813   18.8997 C.ar    1  UNL1        0.0247
     33 C          -6.1027    4.7565   19.3490 C.ar    1  UNL1        0.0788
     34 C          -5.2882    3.9993   18.3424 C.3     1  UNL1        0.4188
     35 F          -4.4736    3.2420   17.3358 F       1  UNL1       -0.1659
     36 F          -6.1595    2.7950   18.5432 F       1  UNL1       -0.1659
     37 F          -4.4168    5.2036   18.1415 F       1  UNL1       -0.1659
     38 O          -0.3676    2.8838   22.3472 O.3     1  UNL1       -0.4722
     39 C          -0.3755    2.5285   23.8045 C.ar    1  UNL1        0.1390
     40 C           0.6328    1.5586   24.3455 C.ar    1  UNL1        0.0369
     41 C           0.6250    1.2034   25.8028 C.ar    1  UNL1        0.0070
     42 C          -0.3911    1.8180   26.7191 C.ar    1  UNL1        0.0716
     43 C          -1.3994    2.7879   26.1782 C.ar    1  UNL1        0.0070
     44 C          -1.3916    3.1432   24.7209 C.ar    1  UNL1        0.0369
     45 C          -0.3990    1.4628   28.1764 C.3     1  UNL1        0.4186
     46 F          -0.4070    1.1076   29.6338 F       1  UNL1       -0.1659
     47 F          -1.8845    1.2623   28.1194 F       1  UNL1       -0.1659
     48 F           1.0864    1.6633   28.2335 F       1  UNL1       -0.1659
@<TRIPOS>BOND
     1    26    27    1
     2    27    25    1
     3    25    24    1
     4    24    23    1
     5    23    17    1
     6    17    18   ar
     7    18    19   ar
     8    19    20   ar
     9    20    21   ar
    10    21    22   ar
    11    22     9    1
    12     9    10    1
    13    10    11    1
    14    11    12    1
    15    12    13   am
    16    13    14    2
    17    13     1    1
    18     1    38    1
    19    38    39    1
    20    39    40   ar
    21    40    41   ar
    22    41    42   ar
    23    42    45    1
    24    45    46    1
    25    45    47    1
    26    45    48    1
    27    42    43   ar
    28    43    44   ar
    29     1     2    1
    30     2     3    1
    31     3     4    1
    32     4     5    1
    33     5     6   am
    34     6     7    2
    35     6    28    1
    36    28    29   ar
    37    29    30   ar
    38    30    31   ar
    39    31    32   ar
    40    32    33   ar
    41    33    34    1
    42    34    35    1
    43    34    36    1
    44    34    37    1
    45     5     8    1
    46    12    15    1
    47    15    16    1
    48    22    17   ar
    49    16     9    1
    50     8     1    1
    51    44    39   ar
    52    33    28   ar
