@<TRIPOS>MOLECULE
*****
 24 25 0 0 0
SMALL
GASTEIGER

@<TRIPOS>ATOM
      1 C          -8.8454  -17.2170   22.9534 C.ar    1  UNL1        0.0695
      2 C          -8.2017  -16.0596   23.6577 C.ar    1  UNL1        0.0779
      3 C          -6.7066  -15.9534   23.7139 C.ar    1  UNL1        0.2606
      4 O          -6.0628  -14.7960   24.4182 O.2     1  UNL1       -0.2671
      5 N          -5.8551  -17.0046   23.0659 N.ar    1  UNL1       -0.3021
      6 C          -6.4988  -18.1620   22.3616 C.ar    1  UNL1        0.1621
      7 S          -5.6474  -19.2132   21.7135 S.2     1  UNL1       -0.0128
      8 N          -7.9940  -18.2682   22.3054 N.ar    1  UNL1       -0.2997
      9 H          -4.8737  -16.9349   23.1028 H       1  UNL1        0.1708
     10 C         -11.0891  -16.7590   21.7261 C.ar    1  UNL1        0.1401
     11 C         -12.5843  -16.8652   21.6699 C.ar    1  UNL1        0.0378
     12 C         -13.3310  -17.5355   22.7849 C.ar    1  UNL1        0.0145
     13 C         -12.5825  -18.0997   23.9560 C.ar    1  UNL1        0.0579
     14 CL        -13.3292  -18.7700   25.0709 Cl      1  UNL1       -0.0822
     15 C         -11.0874  -17.9935   24.0121 C.ar    1  UNL1        0.0159
     16 C         -10.3407  -17.3232   22.8972 C.ar    1  UNL1        0.0508
     17 C         -11.0829  -15.5910   19.4054 C.3     1  UNL1        0.2525
     18 O         -10.3424  -16.0887   20.6112 O.3     1  UNL1       -0.4714
     19 C          -8.6378  -19.4256   21.6011 C.3     1  UNL1        0.1929
     20 C          -9.0246  -19.3037   20.1569 C.2     1  UNL1        0.2425
     21 N         -10.4724  -19.3138   19.7648 N.am    1  UNL1       -0.3272
     22 O          -7.9636  -19.1717   19.1049 O.2     1  UNL1       -0.2732
     23 H         -11.1687  -19.4004   20.4553 H       1  UNL1        0.1450
     24 H         -10.7263  -19.2337   18.8170 H       1  UNL1        0.1450
@<TRIPOS>BOND
     1    17    18    1
     2    18    10    1
     3    10    11   ar
     4    11    12   ar
     5    12    13   ar
     6    13    14    1
     7    13    15   ar
     8    15    16   ar
     9    16     1    1
    10     1     2   ar
    11     2     3   ar
    12     3     4    2
    13     3     5   ar
    14     5     6   ar
    15     6     7    2
    16     6     8   ar
    17     8    19    1
    18    19    20    1
    19    20    21   am
    20    20    22    2
    21    16    10   ar
    22     8     1   ar
    23     5     9    1
    24    21    23    1
    25    21    24    1
@<TRIPOS>MOLECULE
*****
 24 25 0 0 0
SMALL
GASTEIGER

@<TRIPOS>ATOM
      1 C          -8.1818  -17.1078   22.8660 C.ar    1  UNL1        0.0695
      2 C          -7.5656  -15.9226   23.5485 C.ar    1  UNL1        0.0779
      3 C          -6.0840  -15.8757   23.7776 C.ar    1  UNL1        0.2606
      4 O          -5.4678  -14.6905   24.4601 O.2     1  UNL1       -0.2671
      5 N          -5.2184  -17.0139   23.3243 N.ar    1  UNL1       -0.3021
      6 C          -5.8346  -18.1990   22.6419 C.ar    1  UNL1        0.1621
      7 S          -4.9692  -19.3372   22.1886 S.2     1  UNL1       -0.0128
      8 N          -7.3163  -18.2459   22.4127 N.ar    1  UNL1       -0.2997
      9 H          -4.2460  -16.9830   23.4747 H       1  UNL1        0.1708
     10 C         -10.5533  -17.8506   23.6237 C.ar    1  UNL1        0.1401
     11 C         -12.0349  -17.8975   23.3945 C.ar    1  UNL1        0.0378
     12 C         -12.6267  -17.2485   22.1786 C.ar    1  UNL1        0.0145
     13 C         -11.7369  -16.5526   21.1918 C.ar    1  UNL1        0.0579
     14 CL        -12.3286  -15.9036   19.9758 Cl      1  UNL1       -0.0822
     15 C         -10.2552  -16.5057   21.4209 C.ar    1  UNL1        0.0159
     16 C          -9.6635  -17.1547   22.6369 C.ar    1  UNL1        0.0508
     17 C          -9.9679  -19.9938   24.9704 C.3     1  UNL1        0.2525
     18 O          -9.9616  -18.4996   24.8397 O.3     1  UNL1       -0.4714
     19 C          -7.9325  -19.4311   21.7303 C.3     1  UNL1        0.1929
     20 C          -8.2552  -19.3698   20.2666 C.2     1  UNL1        0.2425
     21 N          -7.1834  -19.0226   19.2763 N.am    1  UNL1       -0.3272
     22 O          -9.6495  -19.6556   19.7933 O.2     1  UNL1       -0.2732
     23 H          -6.2682  -18.8349   19.5869 H       1  UNL1        0.1450
     24 H          -7.3951  -18.9823   18.3157 H       1  UNL1        0.1450
@<TRIPOS>BOND
     1    17    18    1
     2    18    10    1
     3    10    11   ar
     4    11    12   ar
     5    12    13   ar
     6    13    14    1
     7    13    15   ar
     8    15    16   ar
     9    16     1    1
    10     1     2   ar
    11     2     3   ar
    12     3     4    2
    13     3     5   ar
    14     5     6   ar
    15     6     7    2
    16     6     8   ar
    17     8    19    1
    18    19    20    1
    19    20    21   am
    20    20    22    2
    21    16    10   ar
    22     8     1   ar
    23     5     9    1
    24    21    23    1
    25    21    24    1
@<TRIPOS>MOLECULE
*****
 24 25 0 0 0
SMALL
GASTEIGER

@<TRIPOS>ATOM
      1 C          -9.6698  -18.6724   21.1324 C.ar    1  UNL1        0.0695
      2 C          -9.9083  -19.4435   19.8681 C.ar    1  UNL1        0.0779
      3 C          -8.7574  -20.0892   19.1550 C.ar    1  UNL1        0.2606
      4 O          -8.9959  -20.8603   17.8906 O.2     1  UNL1       -0.2671
      5 N          -7.3680  -19.9638   19.7062 N.ar    1  UNL1       -0.3021
      6 C          -7.1295  -19.1927   20.9705 C.ar    1  UNL1        0.1621
      7 S          -5.7401  -19.0672   21.5217 S.2     1  UNL1       -0.0128
      8 N          -8.2804  -18.5470   21.6836 N.ar    1  UNL1       -0.2997
      9 H          -6.6126  -20.3876   19.2381 H       1  UNL1        0.1708
     10 C         -11.3155  -16.6807   21.4058 C.ar    1  UNL1        0.1401
     11 C         -12.4664  -16.0351   22.1189 C.ar    1  UNL1        0.0378
     12 C         -13.1225  -16.7355   23.2717 C.ar    1  UNL1        0.0145
     13 C         -12.6277  -18.0815   23.7114 C.ar    1  UNL1        0.0579
     14 CL        -13.2838  -18.7819   24.8643 Cl      1  UNL1       -0.0822
     15 C         -11.4768  -18.7271   22.9983 C.ar    1  UNL1        0.0159
     16 C         -10.8207  -18.0267   21.8455 C.ar    1  UNL1        0.0508
     17 C         -11.4785  -15.5500   19.0724 C.3     1  UNL1        0.2525
     18 O         -10.6594  -15.9803   20.2530 O.3     1  UNL1       -0.4714
     19 C          -8.0419  -17.7759   22.9479 C.3     1  UNL1        0.1929
     20 C          -7.8270  -16.2923   22.8924 C.2     1  UNL1        0.2425
     21 N          -7.9461  -15.5657   21.5855 N.am    1  UNL1       -0.3272
     22 O          -7.4929  -15.5355   24.1436 O.2     1  UNL1       -0.2732
     23 H          -8.1653  -16.0624   20.7643 H       1  UNL1        0.1450
     24 H          -7.8050  -14.5920   21.5490 H       1  UNL1        0.1450
@<TRIPOS>BOND
     1    17    18    1
     2    18    10    1
     3    10    11   ar
     4    11    12   ar
     5    12    13   ar
     6    13    14    1
     7    13    15   ar
     8    15    16   ar
     9    16     1    1
    10     1     2   ar
    11     2     3   ar
    12     3     4    2
    13     3     5   ar
    14     5     6   ar
    15     6     7    2
    16     6     8   ar
    17     8    19    1
    18    19    20    1
    19    20    21   am
    20    20    22    2
    21    16    10   ar
    22     8     1   ar
    23     5     9    1
    24    21    23    1
    25    21    24    1
@<TRIPOS>MOLECULE
*****
 24 25 0 0 0
SMALL
GASTEIGER

@<TRIPOS>ATOM
      1 C          -8.1243  -18.5671   22.0312 C.ar    1  UNL1        0.0695
      2 C          -7.7664  -19.7152   21.1347 C.ar    1  UNL1        0.0779
      3 C          -6.3297  -20.1076   20.9560 C.ar    1  UNL1        0.2606
      4 O          -5.9718  -21.2558   20.0595 O.2     1  UNL1       -0.2671
      5 N          -5.2509  -19.3520   21.6738 N.ar    1  UNL1       -0.3021
      6 C          -5.6088  -18.2039   22.5703 C.ar    1  UNL1        0.1621
      7 S          -4.5301  -17.4482   23.2881 S.2     1  UNL1       -0.0128
      8 N          -7.0456  -17.8114   22.7490 N.ar    1  UNL1       -0.2997
      9 H          -4.3080  -19.6096   21.5565 H       1  UNL1        0.1708
     10 C         -10.3005  -18.5799   23.4505 C.ar    1  UNL1        0.1401
     11 C         -11.7371  -18.1874   23.6291 C.ar    1  UNL1        0.0378
     12 C         -12.4343  -17.3897   22.5672 C.ar    1  UNL1        0.0145
     13 C         -11.6949  -16.9845   21.3267 C.ar    1  UNL1        0.0579
     14 CL        -12.3921  -16.1868   20.2648 Cl      1  UNL1       -0.0822
     15 C         -10.2582  -17.3769   21.1480 C.ar    1  UNL1        0.0159
     16 C          -9.5610  -18.1746   22.2099 C.ar    1  UNL1        0.0508
     17 C          -9.6278  -20.8765   24.4619 C.3     1  UNL1        0.2525
     18 O          -9.6033  -19.3776   24.5123 O.3     1  UNL1       -0.4714
     19 C          -7.4035  -16.6633   23.6456 C.3     1  UNL1        0.1929
     20 C          -7.6159  -15.2965   23.0652 C.2     1  UNL1        0.2425
     21 N          -7.7750  -14.1128   23.9727 N.am    1  UNL1       -0.3272
     22 O          -7.6693  -15.1134   21.5774 O.2     1  UNL1       -0.2732
     23 H          -7.7400  -14.2330   24.9492 H       1  UNL1        0.1450
     24 H          -7.9145  -13.2157   23.5918 H       1  UNL1        0.1450
@<TRIPOS>BOND
     1    17    18    1
     2    18    10    1
     3    10    11   ar
     4    11    12   ar
     5    12    13   ar
     6    13    14    1
     7    13    15   ar
     8    15    16   ar
     9    16     1    1
    10     1     2   ar
    11     2     3   ar
    12     3     4    2
    13     3     5   ar
    14     5     6   ar
    15     6     7    2
    16     6     8   ar
    17     8    19    1
    18    19    20    1
    19    20    21   am
    20    20    22    2
    21    16    10   ar
    22     8     1   ar
    23     5     9    1
    24    21    23    1
    25    21    24    1
@<TRIPOS>MOLECULE
*****
 24 25 0 0 0
SMALL
GASTEIGER

@<TRIPOS>ATOM
      1 C          -9.6136  -17.1971   22.0305 C.ar    1  UNL1        0.0695
      2 C         -10.7419  -16.3580   21.5080 C.ar    1  UNL1        0.0779
      3 C         -11.4067  -16.7179   20.2125 C.ar    1  UNL1        0.2606
      4 O         -12.5349  -15.8788   19.6900 O.2     1  UNL1       -0.2671
      5 N         -10.9433  -17.9169   19.4393 N.ar    1  UNL1       -0.3021
      6 C          -9.8151  -18.7561   19.9618 C.ar    1  UNL1        0.1621
      7 S          -9.3518  -19.9551   19.1888 S.2     1  UNL1       -0.0128
      8 N          -9.1503  -18.3961   21.2574 N.ar    1  UNL1       -0.2997
      9 H         -11.3797  -18.1532   18.5890 H       1  UNL1        0.1708
     10 C          -9.5300  -17.3124   24.6247 C.ar    1  UNL1        0.1401
     11 C          -8.8651  -16.9524   25.9202 C.ar    1  UNL1        0.0378
     12 C          -7.6191  -16.1173   25.9171 C.ar    1  UNL1        0.0145
     13 C          -7.0379  -15.6422   24.6185 C.ar    1  UNL1        0.0579
     14 CL         -5.7919  -14.8071   24.6154 Cl      1  UNL1       -0.0822
     15 C          -7.7028  -16.0021   23.3230 C.ar    1  UNL1        0.0159
     16 C          -8.9488  -16.8372   23.3261 C.ar    1  UNL1        0.0508
     17 C         -10.6762  -19.6437   24.5932 C.3     1  UNL1        0.2525
     18 O         -10.7760  -18.1475   24.6277 O.3     1  UNL1       -0.4714
     19 C          -8.0221  -19.2353   21.7799 C.3     1  UNL1        0.1929
     20 C          -6.6051  -18.8880   21.4312 C.2     1  UNL1        0.2425
     21 N          -6.2575  -18.4712   20.0328 N.am    1  UNL1       -0.3272
     22 O          -5.5357  -18.9574   22.4807 O.2     1  UNL1       -0.2732
     23 H          -6.9593  -18.4256   19.3439 H       1  UNL1        0.1450
     24 H          -5.3275  -18.2432   19.8038 H       1  UNL1        0.1450
@<TRIPOS>BOND
     1    17    18    1
     2    18    10    1
     3    10    11   ar
     4    11    12   ar
     5    12    13   ar
     6    13    14    1
     7    13    15   ar
     8    15    16   ar
     9    16     1    1
    10     1     2   ar
    11     2     3   ar
    12     3     4    2
    13     3     5   ar
    14     5     6   ar
    15     6     7    2
    16     6     8   ar
    17     8    19    1
    18    19    20    1
    19    20    21   am
    20    20    22    2
    21    16    10   ar
    22     8     1   ar
    23     5     9    1
    24    21    23    1
    25    21    24    1
@<TRIPOS>MOLECULE
*****
 24 25 0 0 0
SMALL
GASTEIGER

@<TRIPOS>ATOM
      1 C          -9.8115  -16.9440   21.9706 C.ar    1  UNL1        0.0695
      2 C         -11.0139  -16.1725   21.5135 C.ar    1  UNL1        0.0779
      3 C         -11.8252  -16.6666   20.3526 C.ar    1  UNL1        0.2606
      4 O         -13.0277  -15.8951   19.8955 O.2     1  UNL1       -0.2671
      5 N         -11.4341  -17.9322   19.6488 N.ar    1  UNL1       -0.3021
      6 C         -10.2317  -18.7037   20.1059 C.ar    1  UNL1        0.1621
      7 S          -9.8405  -19.9693   19.4022 S.2     1  UNL1       -0.0128
      8 N          -9.4203  -18.2096   21.2669 N.ar    1  UNL1       -0.2997
      9 H         -11.9666  -18.2565   18.8869 H       1  UNL1        0.1708
     10 C          -7.8806  -15.4777   22.9044 C.ar    1  UNL1        0.1401
     11 C          -7.0694  -14.9836   24.0653 C.ar    1  UNL1        0.0378
     12 C          -7.3776  -15.4616   25.4533 C.ar    1  UNL1        0.0145
     13 C          -8.4971  -16.4338   25.6803 C.ar    1  UNL1        0.0579
     14 CL         -8.8054  -16.9118   27.0683 Cl      1  UNL1       -0.0822
     15 C          -9.3084  -16.9279   24.5195 C.ar    1  UNL1        0.0159
     16 C          -9.0001  -16.4498   23.1315 C.ar    1  UNL1        0.0508
     17 C          -8.5138  -14.0626   20.8195 C.3     1  UNL1        0.2525
     18 O          -7.5724  -14.9997   21.5164 O.3     1  UNL1       -0.4714
     19 C          -8.2179  -18.9810   21.7240 C.3     1  UNL1        0.1929
     20 C          -6.8489  -18.5811   21.2589 C.2     1  UNL1        0.2425
     21 N          -6.5110  -18.6234   19.7981 N.am    1  UNL1       -0.3272
     22 O          -5.8180  -18.1390   22.2547 O.2     1  UNL1       -0.2732
     23 H          -7.1877  -18.9136   19.1445 H       1  UNL1        0.1450
     24 H          -5.6126  -18.3610   19.4929 H       1  UNL1        0.1450
@<TRIPOS>BOND
     1    17    18    1
     2    18    10    1
     3    10    11   ar
     4    11    12   ar
     5    12    13   ar
     6    13    14    1
     7    13    15   ar
     8    15    16   ar
     9    16     1    1
    10     1     2   ar
    11     2     3   ar
    12     3     4    2
    13     3     5   ar
    14     5     6   ar
    15     6     7    2
    16     6     8   ar
    17     8    19    1
    18    19    20    1
    19    20    21   am
    20    20    22    2
    21    16    10   ar
    22     8     1   ar
    23     5     9    1
    24    21    23    1
    25    21    24    1
@<TRIPOS>MOLECULE
*****
 24 25 0 0 0
SMALL
GASTEIGER

@<TRIPOS>ATOM
      1 C          -8.7269  -17.6426   22.6467 C.ar    1  UNL1        0.0695
      2 C          -8.1209  -18.6465   21.7112 C.ar    1  UNL1        0.0779
      3 C          -6.6297  -18.7536   21.5897 C.ar    1  UNL1        0.2606
      4 O          -6.0237  -19.7575   20.6542 O.2     1  UNL1       -0.2671
      5 N          -5.7444  -17.8569   22.4035 N.ar    1  UNL1       -0.3021
      6 C          -6.3504  -16.8531   23.3390 C.ar    1  UNL1        0.1621
      7 S          -5.4653  -15.9564   24.1528 S.2     1  UNL1       -0.0128
      8 N          -7.8417  -16.7459   23.4605 N.ar    1  UNL1       -0.2997
      9 H          -4.7657  -17.9273   22.3237 H       1  UNL1        0.1708
     10 C         -10.9956  -16.7265   21.7727 C.ar    1  UNL1        0.1401
     11 C         -12.4868  -16.6194   21.8943 C.ar    1  UNL1        0.0378
     12 C         -13.2005  -17.3212   23.0114 C.ar    1  UNL1        0.0145
     13 C         -12.4231  -18.1302   24.0069 C.ar    1  UNL1        0.0579
     14 CL        -13.1369  -18.8320   25.1241 Cl      1  UNL1       -0.0822
     15 C         -10.9319  -18.2373   23.8854 C.ar    1  UNL1        0.0159
     16 C         -10.2182  -17.5354   22.7682 C.ar    1  UNL1        0.0508
     17 C         -11.0504  -15.5393   19.4624 C.3     1  UNL1        0.2525
     18 O         -10.2818  -16.0246   20.6556 O.3     1  UNL1       -0.4714
     19 C          -8.4477  -15.7421   24.3959 C.3     1  UNL1        0.1929
     20 C          -8.4555  -16.0026   25.8732 C.2     1  UNL1        0.2425
     21 N          -7.9607  -14.9520   26.8226 N.am    1  UNL1       -0.3272
     22 O          -8.9579  -17.3137   26.4009 O.2     1  UNL1       -0.2732
     23 H          -7.6310  -14.0915   26.4763 H       1  UNL1        0.1450
     24 H          -7.9658  -15.1230   27.7922 H       1  UNL1        0.1450
@<TRIPOS>BOND
     1    17    18    1
     2    18    10    1
     3    10    11   ar
     4    11    12   ar
     5    12    13   ar
     6    13    14    1
     7    13    15   ar
     8    15    16   ar
     9    16     1    1
    10     1     2   ar
    11     2     3   ar
    12     3     4    2
    13     3     5   ar
    14     5     6   ar
    15     6     7    2
    16     6     8   ar
    17     8    19    1
    18    19    20    1
    19    20    21   am
    20    20    22    2
    21    16    10   ar
    22     8     1   ar
    23     5     9    1
    24    21    23    1
    25    21    24    1
@<TRIPOS>MOLECULE
*****
 24 25 0 0 0
SMALL
GASTEIGER

@<TRIPOS>ATOM
      1 C          -8.9481  -16.4026   23.9495 C.ar    1  UNL1        0.0695
      2 C          -9.2033  -15.8462   25.3190 C.ar    1  UNL1        0.0779
      3 C          -8.0528  -15.4194   26.1815 C.ar    1  UNL1        0.2606
      4 O          -8.3080  -14.8630   27.5509 O.2     1  UNL1       -0.2671
      5 N          -6.6469  -15.5490   25.6746 N.ar    1  UNL1       -0.3021
      6 C          -6.3917  -16.1054   24.3052 C.ar    1  UNL1        0.1621
      7 S          -4.9859  -16.2350   23.7983 S.2     1  UNL1       -0.0128
      8 N          -7.5424  -16.5322   23.4427 N.ar    1  UNL1       -0.2997
      9 H          -5.8917  -15.2689   26.2407 H       1  UNL1        0.1708
     10 C         -10.9860  -17.9570   23.5242 C.ar    1  UNL1        0.1401
     11 C         -12.1366  -18.3837   22.6617 C.ar    1  UNL1        0.0378
     12 C         -12.4000  -17.6828   21.3620 C.ar    1  UNL1        0.0145
     13 C         -11.5127  -16.5552   20.9247 C.ar    1  UNL1        0.0579
     14 CL        -11.7761  -15.8543   19.6250 Cl      1  UNL1       -0.0822
     15 C         -10.3622  -16.1285   21.7872 C.ar    1  UNL1        0.0159
     16 C         -10.0988  -16.8294   23.0870 C.ar    1  UNL1        0.0508
     17 C         -10.1805  -20.0565   24.8255 C.3     1  UNL1        0.2525
     18 O         -10.7227  -18.6579   24.8240 O.3     1  UNL1       -0.4714
     19 C          -7.2872  -17.0886   22.0732 C.3     1  UNL1        0.1929
     20 C          -6.9141  -18.5321   21.9077 C.2     1  UNL1        0.2425
     21 N          -5.6196  -18.9010   21.2458 N.am    1  UNL1       -0.3272
     22 O          -7.8355  -19.6065   22.4042 O.2     1  UNL1       -0.2732
     23 H          -5.0149  -18.1957   20.9199 H       1  UNL1        0.1450
     24 H          -5.3747  -19.8483   21.1371 H       1  UNL1        0.1450
@<TRIPOS>BOND
     1    17    18    1
     2    18    10    1
     3    10    11   ar
     4    11    12   ar
     5    12    13   ar
     6    13    14    1
     7    13    15   ar
     8    15    16   ar
     9    16     1    1
    10     1     2   ar
    11     2     3   ar
    12     3     4    2
    13     3     5   ar
    14     5     6   ar
    15     6     7    2
    16     6     8   ar
    17     8    19    1
    18    19    20    1
    19    20    21   am
    20    20    22    2
    21    16    10   ar
    22     8     1   ar
    23     5     9    1
    24    21    23    1
    25    21    24    1
@<TRIPOS>MOLECULE
*****
 24 25 0 0 0
SMALL
GASTEIGER

@<TRIPOS>ATOM
      1 C          -8.9014  -16.4935   22.8633 C.ar    1  UNL1        0.0695
      2 C          -9.1773  -15.4510   21.8207 C.ar    1  UNL1        0.0779
      3 C          -9.9999  -15.7957   20.6147 C.ar    1  UNL1        0.2606
      4 O         -10.2757  -14.7532   19.5720 O.2     1  UNL1       -0.2671
      5 N         -10.5467  -17.1830   20.4513 N.ar    1  UNL1       -0.3021
      6 C         -10.2708  -18.2254   21.4939 C.ar    1  UNL1        0.1621
      7 S         -10.8175  -19.6126   21.3306 S.2     1  UNL1       -0.0128
      8 N          -9.4481  -17.8807   22.7000 N.ar    1  UNL1       -0.2997
      9 H         -11.0866  -17.4092   19.6597 H       1  UNL1        0.1708
     10 C          -6.5906  -16.3340   24.0401 C.ar    1  UNL1        0.1401
     11 C          -5.7680  -15.9892   25.2461 C.ar    1  UNL1        0.0378
     12 C          -6.4337  -15.4591   26.4813 C.ar    1  UNL1        0.0145
     13 C          -7.9219  -15.2738   26.5106 C.ar    1  UNL1        0.0579
     14 CL         -8.5875  -14.7438   27.7459 Cl      1  UNL1       -0.0822
     15 C          -8.7444  -15.6186   25.3047 C.ar    1  UNL1        0.0159
     16 C          -8.0788  -16.1487   24.0694 C.ar    1  UNL1        0.0508
     17 C          -4.7389  -17.7746   22.9238 C.3     1  UNL1        0.2525
     18 O          -5.9249  -16.8640   22.8048 O.3     1  UNL1       -0.4714
     19 C          -9.1723  -18.9231   23.7426 C.3     1  UNL1        0.1929
     20 C         -10.0066  -18.9774   24.9881 C.2     1  UNL1        0.2425
     21 N         -11.4035  -19.5210   24.9319 N.am    1  UNL1       -0.3272
     22 O          -9.4440  -18.4881   26.2896 O.2     1  UNL1       -0.2732
     23 H         -11.7727  -19.8422   24.0776 H       1  UNL1        0.1450
     24 H         -11.9511  -19.5567   25.7493 H       1  UNL1        0.1450
@<TRIPOS>BOND
     1    17    18    1
     2    18    10    1
     3    10    11   ar
     4    11    12   ar
     5    12    13   ar
     6    13    14    1
     7    13    15   ar
     8    15    16   ar
     9    16     1    1
    10     1     2   ar
    11     2     3   ar
    12     3     4    2
    13     3     5   ar
    14     5     6   ar
    15     6     7    2
    16     6     8   ar
    17     8    19    1
    18    19    20    1
    19    20    21   am
    20    20    22    2
    21    16    10   ar
    22     8     1   ar
    23     5     9    1
    24    21    23    1
    25    21    24    1
