@<TRIPOS>MOLECULE
*****
 28 31 0 0 0
SMALL
GASTEIGER

@<TRIPOS>ATOM
      1 N           6.5333   -3.4689   31.2234 N.3     1  UNL1       -0.2711
      2 C           6.5482   -3.0580   29.7808 C.3     1  UNL1        0.0939
      3 C           6.9627   -4.0401   28.7255 C.3     1  UNL1        0.1123
      4 N           7.3623   -5.4330   29.1127 N.am    1  UNL1       -0.2612
      5 C           7.7769   -6.4151   28.0573 C.2     1  UNL1        0.3072
      6 O           8.1765   -7.8080   28.4445 O.2     1  UNL1       -0.2523
      7 N           7.7918   -6.0042   26.6148 N.am    1  UNL1       -0.2640
      8 C           8.2063   -6.9862   25.5595 C.3     1  UNL1        0.0954
      9 C           8.2212   -6.5753   24.1169 C.3     1  UNL1        0.0307
     10 C           7.8216   -5.1823   23.7297 C.3     1  UNL1        0.0801
     11 C           7.4071   -4.2003   24.7851 C.3     1  UNL1        0.0307
     12 C           7.3922   -4.6112   26.2276 C.3     1  UNL1        0.0954
     13 C           7.3474   -5.8439   30.5552 C.3     1  UNL1        0.1123
     14 C           6.9329   -4.8619   31.6105 C.3     1  UNL1        0.0939
     15 C           7.8366   -4.7714   22.2872 C.2     1  UNL1        0.2253
     16 O           9.0211   -5.0975   21.4267 O.2     1  UNL1       -0.2749
     17 N           5.1707   -2.9858   20.5955 N.am    1  UNL1       -0.2796
     18 C           4.5452   -3.0315   21.8017 C.3     1  UNL1        0.0933
     19 C           4.4121   -3.0390   22.0507 C.3     1  UNL1        0.0199
     20 C           5.7713   -3.6528   21.8899 C.3     1  UNL1        0.0018
     21 C           6.4638   -3.6038   20.5603 C.3     1  UNL1        0.0018
     22 C           5.7971   -2.9410   19.3914 C.3     1  UNL1        0.0199
     23 C           4.4379   -2.3273   19.5522 C.3     1  UNL1        0.0018
     24 C           3.7454   -2.3762   20.8818 C.3     1  UNL1        0.0018
     25 C           5.1091   -2.9918   20.7196 C.3     1  UNL1        0.0933
     26 C           7.1142   -1.5053   32.8223 C.3     1  UNL1        0.0173
     27 C           6.1187   -2.4869   32.2787 C.3     1  UNL1        0.0577
     28 C           4.7088   -2.4864   32.7904 C.3     1  UNL1        0.0173
@<TRIPOS>BOND
     1    26    27    1
     2    27    28    1
     3    27     1    1
     4     1     2    1
     5     2     3    1
     6     3     4    1
     7     4     5   am
     8     5     6    2
     9     5     7   am
    10     7     8    1
    11     8     9    1
    12     9    10    1
    13    10    15    1
    14    15    16    2
    15    15    17   am
    16    17    18    1
    17    18    19    1
    18    19    20    1
    19    20    21    1
    20    21    22    1
    21    22    23    1
    22    23    24    1
    23    22    25    1
    24    10    11    1
    25    11    12    1
    26     4    13    1
    27    13    14    1
    28    14     1    1
    29    12     7    1
    30    25    17    1
    31    24    19    1
@<TRIPOS>MOLECULE
*****
 28 31 0 0 0
SMALL
GASTEIGER

@<TRIPOS>ATOM
      1 N           7.1194   -4.7410   27.7921 N.3     1  UNL1       -0.2711
      2 C           6.6230   -3.6638   26.8740 C.3     1  UNL1        0.0939
      3 C           6.8027   -3.8004   25.3911 C.3     1  UNL1        0.1123
      4 N           7.4790   -5.0143   24.8263 N.am    1  UNL1       -0.2612
      5 C           7.6587   -5.1510   23.3434 C.2     1  UNL1        0.3072
      6 O           8.3349   -6.3649   22.7786 O.2     1  UNL1       -0.2523
      7 N           7.1623   -4.0737   22.4253 N.am    1  UNL1       -0.2640
      8 C           7.3421   -4.2103   20.9424 C.3     1  UNL1        0.0954
      9 C           6.8456   -3.1329   20.0243 C.3     1  UNL1        0.0307
     10 C           6.1694   -1.9190   20.5891 C.3     1  UNL1        0.0801
     11 C           5.9896   -1.7824   22.0720 C.3     1  UNL1        0.0307
     12 C           6.4860   -2.8597   22.9901 C.3     1  UNL1        0.0954
     13 C           7.9754   -6.0916   25.7444 C.3     1  UNL1        0.1123
     14 C           7.7956   -5.9550   27.2273 C.3     1  UNL1        0.0939
     15 C           5.6730   -0.8417   19.6710 C.2     1  UNL1        0.2253
     16 O           6.6403   -0.0875   18.8076 O.2     1  UNL1       -0.2749
     17 N           2.2070    0.1670   19.3149 N.am    1  UNL1       -0.2796
     18 C           1.9633   -0.7920   20.2472 C.3     1  UNL1        0.0933
     19 C           1.9087   -0.9903   20.4407 C.3     1  UNL1        0.0199
     20 C           3.3123   -0.7414   19.9738 C.3     1  UNL1        0.0018
     21 C           3.5841    0.3160   18.9453 C.3     1  UNL1        0.0018
     22 C           2.4524    1.1245   18.3836 C.3     1  UNL1        0.0199
     23 C           1.0488    0.8756   18.8505 C.3     1  UNL1        0.0018
     24 C           0.7770   -0.1818   19.8790 C.3     1  UNL1        0.0018
     25 C           2.1849    0.0686   19.4100 C.3     1  UNL1        0.0933
     26 C           6.5669   -3.2772   29.8662 C.3     1  UNL1        0.0173
     27 C           6.9396   -4.6044   29.2750 C.3     1  UNL1        0.0577
     28 C           7.1325   -5.7950   30.1668 C.3     1  UNL1        0.0173
@<TRIPOS>BOND
     1    26    27    1
     2    27    28    1
     3    27     1    1
     4     1     2    1
     5     2     3    1
     6     3     4    1
     7     4     5   am
     8     5     6    2
     9     5     7   am
    10     7     8    1
    11     8     9    1
    12     9    10    1
    13    10    15    1
    14    15    16    2
    15    15    17   am
    16    17    18    1
    17    18    19    1
    18    19    20    1
    19    20    21    1
    20    21    22    1
    21    22    23    1
    22    23    24    1
    23    22    25    1
    24    10    11    1
    25    11    12    1
    26     4    13    1
    27    13    14    1
    28    14     1    1
    29    12     7    1
    30    25    17    1
    31    24    19    1
@<TRIPOS>MOLECULE
*****
 28 31 0 0 0
SMALL
GASTEIGER

@<TRIPOS>ATOM
      1 N           4.2896   -2.6789   20.3996 N.3     1  UNL1       -0.2711
      2 C           4.9301   -2.9308   21.7324 C.3     1  UNL1        0.0939
      3 C           4.4600   -2.1817   22.9440 C.3     1  UNL1        0.1123
      4 N           3.3495   -1.1808   22.8228 N.am    1  UNL1       -0.2612
      5 C           2.8794   -0.4317   24.0343 C.2     1  UNL1        0.3072
      6 O           1.7688    0.5692   23.9132 O.2     1  UNL1       -0.2523
      7 N           3.5199   -0.6835   25.3671 N.am    1  UNL1       -0.2640
      8 C           3.0498    0.0656   26.5787 C.3     1  UNL1        0.0954
      9 C           3.6904   -0.1863   27.9115 C.3     1  UNL1        0.0307
     10 C           4.8010   -1.1872   28.0327 C.3     1  UNL1        0.0801
     11 C           5.2711   -1.9363   26.8211 C.3     1  UNL1        0.0307
     12 C           4.6306   -1.6845   25.4883 C.3     1  UNL1        0.0954
     13 C           2.7090   -0.9289   21.4900 C.3     1  UNL1        0.1123
     14 C           3.1790   -1.6780   20.2785 C.3     1  UNL1        0.0939
     15 C           5.4415   -1.4390   29.3654 C.2     1  UNL1        0.2253
     16 O           5.4712   -0.3537   30.4003 O.2     1  UNL1       -0.2749
     17 N           6.9969   -4.5546   30.3809 N.am    1  UNL1       -0.2796
     18 C           6.6451   -4.9883   29.1414 C.3     1  UNL1        0.0933
     19 C           6.5737   -5.0820   28.8848 C.3     1  UNL1        0.0199
     20 C           6.2382   -3.6833   29.3103 C.3     1  UNL1        0.0018
     21 C           6.6251   -3.2021   30.6772 C.3     1  UNL1        0.0018
     22 C           7.3476   -4.1196   31.6187 C.3     1  UNL1        0.0199
     23 C           7.6831   -5.5183   31.1932 C.3     1  UNL1        0.0018
     24 C           7.2961   -5.9995   29.8262 C.3     1  UNL1        0.0018
     25 C           6.9599   -4.5963   30.2540 C.3     1  UNL1        0.0933
     26 C           4.2909   -4.8321   18.9457 C.3     1  UNL1        0.0173
     27 C           4.7597   -3.4280   19.1881 C.3     1  UNL1        0.0577
     28 C           5.6986   -2.7731   18.2188 C.3     1  UNL1        0.0173
@<TRIPOS>BOND
     1    26    27    1
     2    27    28    1
     3    27     1    1
     4     1     2    1
     5     2     3    1
     6     3     4    1
     7     4     5   am
     8     5     6    2
     9     5     7   am
    10     7     8    1
    11     8     9    1
    12     9    10    1
    13    10    15    1
    14    15    16    2
    15    15    17   am
    16    17    18    1
    17    18    19    1
    18    19    20    1
    19    20    21    1
    20    21    22    1
    21    22    23    1
    22    23    24    1
    23    22    25    1
    24    10    11    1
    25    11    12    1
    26     4    13    1
    27    13    14    1
    28    14     1    1
    29    12     7    1
    30    25    17    1
    31    24    19    1
@<TRIPOS>MOLECULE
*****
 28 31 0 0 0
SMALL
GASTEIGER

@<TRIPOS>ATOM
      1 N           4.7508   -2.0479   20.4200 N.3     1  UNL1       -0.2711
      2 C           4.6934   -2.5568   21.8299 C.3     1  UNL1        0.0939
      3 C           5.8168   -3.3891   22.3732 C.3     1  UNL1        0.1123
      4 N           6.9976   -3.7126   21.5066 N.am    1  UNL1       -0.2612
      5 C           8.1210   -4.5449   22.0499 C.2     1  UNL1        0.3072
      6 O           9.3018   -4.8684   21.1834 O.2     1  UNL1       -0.2523
      7 N           8.0636   -5.0537   23.4598 N.am    1  UNL1       -0.2640
      8 C           9.1870   -5.8861   24.0031 C.3     1  UNL1        0.0954
      9 C           9.1296   -6.3949   25.4130 C.3     1  UNL1        0.0307
     10 C           7.9488   -6.0714   26.2796 C.3     1  UNL1        0.0801
     11 C           6.8254   -5.2391   25.7363 C.3     1  UNL1        0.0307
     12 C           6.8828   -4.7302   24.3264 C.3     1  UNL1        0.0954
     13 C           7.0550   -3.2037   20.0968 C.3     1  UNL1        0.1123
     14 C           5.9316   -2.3714   19.5535 C.3     1  UNL1        0.0939
     15 C           7.8914   -6.5802   27.6895 C.2     1  UNL1        0.2253
     16 O           8.2615   -8.0026   27.9891 O.2     1  UNL1       -0.2749
     17 N           6.9010   -4.6233   30.5785 N.am    1  UNL1       -0.2796
     18 C           6.7382   -3.6144   29.6820 C.3     1  UNL1        0.0933
     19 C           6.7032   -3.4024   29.4987 C.3     1  UNL1        0.0199
     20 C           7.1637   -4.7510   29.0307 C.3     1  UNL1        0.0018
     21 C           7.3443   -5.8659   30.0177 C.3     1  UNL1        0.0018
     22 C           7.0643   -5.6323   31.4727 C.3     1  UNL1        0.0199
     23 C           6.6037   -4.2836   31.9407 C.3     1  UNL1        0.0018
     24 C           6.4232   -3.1687   30.9537 C.3     1  UNL1        0.0018
     25 C           6.8852   -4.5221   30.4850 C.3     1  UNL1        0.0933
     26 C           2.4295   -0.9231   20.7309 C.3     1  UNL1        0.0173
     27 C           3.6273   -1.2156   19.8767 C.3     1  UNL1        0.0577
     28 C           3.7017   -0.6758   18.4793 C.3     1  UNL1        0.0173
@<TRIPOS>BOND
     1    26    27    1
     2    27    28    1
     3    27     1    1
     4     1     2    1
     5     2     3    1
     6     3     4    1
     7     4     5   am
     8     5     6    2
     9     5     7   am
    10     7     8    1
    11     8     9    1
    12     9    10    1
    13    10    15    1
    14    15    16    2
    15    15    17   am
    16    17    18    1
    17    18    19    1
    18    19    20    1
    19    20    21    1
    20    21    22    1
    21    22    23    1
    22    23    24    1
    23    22    25    1
    24    10    11    1
    25    11    12    1
    26     4    13    1
    27    13    14    1
    28    14     1    1
    29    12     7    1
    30    25    17    1
    31    24    19    1
@<TRIPOS>MOLECULE
*****
 28 31 0 0 0
SMALL
GASTEIGER

@<TRIPOS>ATOM
      1 N          -0.7115    1.4710   27.3508 N.3     1  UNL1       -0.2711
      2 C           0.3315    0.9781   26.3921 C.3     1  UNL1        0.0939
      3 C           0.3747    1.5121   24.9911 C.3     1  UNL1        0.1123
      4 N          -0.6250    2.5391   24.5487 N.am    1  UNL1       -0.2612
      5 C          -0.5818    3.0731   23.1477 C.2     1  UNL1        0.3072
      6 O          -1.5816    4.1001   22.7053 O.2     1  UNL1       -0.2523
      7 N           0.4611    2.5802   22.1890 N.am    1  UNL1       -0.2640
      8 C           0.5043    3.1142   20.7879 C.3     1  UNL1        0.0954
      9 C           1.5474    2.6212   19.8292 C.3     1  UNL1        0.0307
     10 C           2.5472    1.5942   20.2716 C.3     1  UNL1        0.0801
     11 C           2.5040    1.0602   21.6726 C.3     1  UNL1        0.0307
     12 C           1.4610    1.5531   22.6313 C.3     1  UNL1        0.0954
     13 C          -1.6680    3.0320   25.5074 C.3     1  UNL1        0.1123
     14 C          -1.7112    2.4980   26.9085 C.3     1  UNL1        0.0939
     15 C           3.5902    1.1012   19.3129 C.2     1  UNL1        0.2253
     16 O           4.3618    2.0784   18.4764 O.2     1  UNL1       -0.2749
     17 N           4.4722   -2.3784   18.7924 N.am    1  UNL1       -0.2796
     18 C           3.5222   -2.6292   19.7320 C.3     1  UNL1        0.0933
     19 C           3.3255   -2.6852   19.9268 C.3     1  UNL1        0.0199
     20 C           3.6144   -1.2722   19.5145 C.3     1  UNL1        0.0018
     21 C           4.6620   -0.9927   18.4781 C.3     1  UNL1        0.0018
     22 C           5.4209   -2.1261   17.8540 C.3     1  UNL1        0.0199
     23 C           5.1321   -3.5391   18.2663 C.3     1  UNL1        0.0018
     24 C           4.0844   -3.8186   19.3027 C.3     1  UNL1        0.0018
     25 C           4.3748   -2.4012   18.8884 C.3     1  UNL1        0.0933
     26 C           0.1610    1.5004   29.7978 C.3     1  UNL1        0.0173
     27 C          -0.7547    0.9370   28.7519 C.3     1  UNL1        0.0577
     28 C          -1.7135   -0.1604   29.1070 C.3     1  UNL1        0.0173
@<TRIPOS>BOND
     1    26    27    1
     2    27    28    1
     3    27     1    1
     4     1     2    1
     5     2     3    1
     6     3     4    1
     7     4     5   am
     8     5     6    2
     9     5     7   am
    10     7     8    1
    11     8     9    1
    12     9    10    1
    13    10    15    1
    14    15    16    2
    15    15    17   am
    16    17    18    1
    17    18    19    1
    18    19    20    1
    19    20    21    1
    20    21    22    1
    21    22    23    1
    22    23    24    1
    23    22    25    1
    24    10    11    1
    25    11    12    1
    26     4    13    1
    27    13    14    1
    28    14     1    1
    29    12     7    1
    30    25    17    1
    31    24    19    1
@<TRIPOS>MOLECULE
*****
 28 31 0 0 0
SMALL
GASTEIGER

@<TRIPOS>ATOM
      1 N          -2.2359    3.7546   24.8240 N.3     1  UNL1       -0.2711
      2 C          -0.9216    3.1520   24.4250 C.3     1  UNL1        0.0939
      3 C          -0.6163    2.9100   22.9765 C.3     1  UNL1        0.1123
      4 N          -1.6253    3.2707   21.9269 N.am    1  UNL1       -0.2612
      5 C          -1.3200    3.0288   20.4784 C.2     1  UNL1        0.3072
      6 O          -2.3291    3.3895   19.4288 O.2     1  UNL1       -0.2523
      7 N          -0.0057    2.4261   20.0794 N.am    1  UNL1       -0.2640
      8 C           0.2996    2.1841   18.6309 C.3     1  UNL1        0.0954
      9 C           1.6141    1.5814   18.2320 C.3     1  UNL1        0.0307
     10 C           2.6231    1.2207   19.2816 C.3     1  UNL1        0.0801
     11 C           2.3178    1.4627   20.7301 C.3     1  UNL1        0.0307
     12 C           1.0035    2.0654   21.1290 C.3     1  UNL1        0.0954
     13 C          -2.9397    3.8734   22.3259 C.3     1  UNL1        0.1123
     14 C          -3.2450    4.1153   23.7744 C.3     1  UNL1        0.0939
     15 C           3.9375    0.6181   18.8826 C.2     1  UNL1        0.2253
     16 O           5.0666    1.5034   18.4453 O.2     1  UNL1       -0.2749
     17 N           4.6914   -2.9300   18.8697 N.am    1  UNL1       -0.2796
     18 C           3.4124   -3.0752   19.3072 C.3     1  UNL1        0.0933
     19 C           3.1472   -3.1093   19.3982 C.3     1  UNL1        0.0199
     20 C           3.6922   -1.7391   19.1236 C.3     1  UNL1        0.0018
     21 C           5.1029   -1.5759   18.6408 C.3     1  UNL1        0.0018
     22 C           5.9687   -2.7830   18.4326 C.3     1  UNL1        0.0199
     23 C           5.4238   -4.1532   18.7072 C.3     1  UNL1        0.0018
     24 C           4.0131   -4.3164   19.1900 C.3     1  UNL1        0.0018
     25 C           4.5606   -2.9420   18.9142 C.3     1  UNL1        0.0933
     26 C          -1.4271    4.2741   27.2377 C.3     1  UNL1        0.0173
     27 C          -2.5412    3.9966   26.2725 C.3     1  UNL1        0.0577
     28 C          -3.9607    3.9610   26.7559 C.3     1  UNL1        0.0173
@<TRIPOS>BOND
     1    26    27    1
     2    27    28    1
     3    27     1    1
     4     1     2    1
     5     2     3    1
     6     3     4    1
     7     4     5   am
     8     5     6    2
     9     5     7   am
    10     7     8    1
    11     8     9    1
    12     9    10    1
    13    10    15    1
    14    15    16    2
    15    15    17   am
    16    17    18    1
    17    18    19    1
    18    19    20    1
    19    20    21    1
    20    21    22    1
    21    22    23    1
    22    23    24    1
    23    22    25    1
    24    10    11    1
    25    11    12    1
    26     4    13    1
    27    13    14    1
    28    14     1    1
    29    12     7    1
    30    25    17    1
    31    24    19    1
@<TRIPOS>MOLECULE
*****
 28 31 0 0 0
SMALL
GASTEIGER

@<TRIPOS>ATOM
      1 N          -5.6516    4.7107   24.8447 N.3     1  UNL1       -0.2711
      2 C          -4.9392    4.4481   23.5511 C.3     1  UNL1        0.0939
      3 C          -3.5252    3.9477   23.5617 C.3     1  UNL1        0.1123
      4 N          -2.8235    3.7099   24.8659 N.am    1  UNL1       -0.2612
      5 C          -1.4095    3.2094   24.8765 C.2     1  UNL1        0.3072
      6 O          -0.7078    2.9716   26.1807 O.2     1  UNL1       -0.2523
      7 N          -0.6972    2.9468   23.5828 N.am    1  UNL1       -0.2640
      8 C           0.7169    2.4463   23.5934 C.3     1  UNL1        0.0954
      9 C           1.4292    2.1837   22.2997 C.3     1  UNL1        0.0307
     10 C           0.7275    2.4215   20.9955 C.3     1  UNL1        0.0801
     11 C          -0.6865    2.9219   20.9849 C.3     1  UNL1        0.0307
     12 C          -1.3988    3.1846   22.2785 C.3     1  UNL1        0.0954
     13 C          -3.5358    3.9725   26.1595 C.3     1  UNL1        0.1123
     14 C          -4.9499    4.4729   26.1490 C.3     1  UNL1        0.0939
     15 C           1.4398    2.1588   19.7018 C.2     1  UNL1        0.2253
     16 O           1.4615    3.2089   18.6309 O.2     1  UNL1       -0.2749
     17 N           3.1957   -0.9035   18.8676 N.am    1  UNL1       -0.2796
     18 C           2.8104   -1.3132   20.1053 C.3     1  UNL1        0.0933
     19 C           2.7322   -1.4018   20.3618 C.3     1  UNL1        0.0199
     20 C           2.3459   -0.0376   19.8722 C.3     1  UNL1        0.0018
     21 C           2.7697    0.4169   18.5070 C.3     1  UNL1        0.0018
     22 C           3.5798   -0.4926   17.6315 C.3     1  UNL1        0.0199
     23 C           3.9660   -1.8568   18.1212 C.3     1  UNL1        0.0018
     24 C           3.5423   -2.3114   19.4863 C.3     1  UNL1        0.0018
     25 C           3.1551   -0.9428   18.9942 C.3     1  UNL1        0.0933
     26 C          -8.0318    4.7074   23.8033 C.3     1  UNL1        0.0173
     27 C          -7.0656    5.2112   24.8341 C.3     1  UNL1        0.0577
     28 C          -7.5134    6.2154   25.8544 C.3     1  UNL1        0.0173
@<TRIPOS>BOND
     1    26    27    1
     2    27    28    1
     3    27     1    1
     4     1     2    1
     5     2     3    1
     6     3     4    1
     7     4     5   am
     8     5     6    2
     9     5     7   am
    10     7     8    1
    11     8     9    1
    12     9    10    1
    13    10    15    1
    14    15    16    2
    15    15    17   am
    16    17    18    1
    17    18    19    1
    18    19    20    1
    19    20    21    1
    20    21    22    1
    21    22    23    1
    22    23    24    1
    23    22    25    1
    24    10    11    1
    25    11    12    1
    26     4    13    1
    27    13    14    1
    28    14     1    1
    29    12     7    1
    30    25    17    1
    31    24    19    1
@<TRIPOS>MOLECULE
*****
 28 31 0 0 0
SMALL
GASTEIGER

@<TRIPOS>ATOM
      1 N           4.1676   -1.9294   18.8881 N.3     1  UNL1       -0.2711
      2 C           3.6341   -1.5892   20.2481 C.3     1  UNL1        0.0939
      3 C           2.6694   -0.4524   20.4125 C.3     1  UNL1        0.1123
      4 N           2.2382    0.3442   19.2169 N.am    1  UNL1       -0.2612
      5 C           1.2735    1.4810   19.3813 C.2     1  UNL1        0.3072
      6 O           0.8422    2.2775   18.1858 O.2     1  UNL1       -0.2523
      7 N           0.7400    1.8212   20.7413 N.am    1  UNL1       -0.2640
      8 C          -0.2247    2.9580   20.9057 C.3     1  UNL1        0.0954
      9 C          -0.7581    3.2982   22.2658 C.3     1  UNL1        0.0307
     10 C          -0.3269    2.5017   23.4614 C.3     1  UNL1        0.0801
     11 C           0.6378    1.3649   23.2970 C.3     1  UNL1        0.0307
     12 C           1.1713    1.0246   21.9370 C.3     1  UNL1        0.0954
     13 C           2.7716    0.0039   17.8569 C.3     1  UNL1        0.1123
     14 C           3.7363   -1.1329   17.6925 C.3     1  UNL1        0.0939
     15 C          -0.8603    2.8419   24.8214 C.2     1  UNL1        0.2253
     16 O           0.0222    2.7119   26.0273 O.2     1  UNL1       -0.2749
     17 N          -4.2266    4.0009   25.5157 N.am    1  UNL1       -0.2796
     18 C          -4.4067    3.8900   24.1727 C.3     1  UNL1        0.0933
     19 C          -4.4479    3.8683   23.8942 C.3     1  UNL1        0.0199
     20 C          -3.1209    3.5217   24.5014 C.3     1  UNL1        0.0018
     21 C          -2.9193    3.6431   25.9828 C.3     1  UNL1        0.0018
     22 C          -4.0449    4.1111   26.8570 C.3     1  UNL1        0.0199
     23 C          -5.3719    4.4576   26.2498 C.3     1  UNL1        0.0018
     24 C          -5.5735    4.3362   24.7684 C.3     1  UNL1        0.0018
     25 C          -4.2423    3.9887   25.3785 C.3     1  UNL1        0.0933
     26 C           6.5682   -2.7891   18.3904 C.3     1  UNL1        0.0173
     27 C           5.1323   -3.0662   18.7237 C.3     1  UNL1        0.0577
     28 C           4.6610   -4.4802   18.8926 C.3     1  UNL1        0.0173
@<TRIPOS>BOND
     1    26    27    1
     2    27    28    1
     3    27     1    1
     4     1     2    1
     5     2     3    1
     6     3     4    1
     7     4     5   am
     8     5     6    2
     9     5     7   am
    10     7     8    1
    11     8     9    1
    12     9    10    1
    13    10    15    1
    14    15    16    2
    15    15    17   am
    16    17    18    1
    17    18    19    1
    18    19    20    1
    19    20    21    1
    20    21    22    1
    21    22    23    1
    22    23    24    1
    23    22    25    1
    24    10    11    1
    25    11    12    1
    26     4    13    1
    27    13    14    1
    28    14     1    1
    29    12     7    1
    30    25    17    1
    31    24    19    1
@<TRIPOS>MOLECULE
*****
 28 31 0 0 0
SMALL
GASTEIGER

@<TRIPOS>ATOM
      1 N           5.8192   -1.2275   31.9179 N.3     1  UNL1       -0.2711
      2 C           5.8208   -1.1596   30.4195 C.3     1  UNL1        0.0939
      3 C           6.1820   -2.3723   29.6140 C.3     1  UNL1        0.1123
      4 N           6.5416   -3.6531   30.3070 N.am    1  UNL1       -0.2612
      5 C           6.9029   -4.8658   29.5016 C.2     1  UNL1        0.3072
      6 O           7.2625   -6.1466   30.1946 O.2     1  UNL1       -0.2523
      7 N           6.9044   -4.7979   28.0032 N.am    1  UNL1       -0.2640
      8 C           7.2656   -6.0106   27.1977 C.3     1  UNL1        0.0954
      9 C           7.2672   -5.9426   25.6992 C.3     1  UNL1        0.0307
     10 C           6.9076   -4.6618   25.0062 C.3     1  UNL1        0.0801
     11 C           6.5463   -3.4491   25.8117 C.3     1  UNL1        0.0307
     12 C           6.5448   -3.5171   27.3101 C.3     1  UNL1        0.0954
     13 C           6.5401   -3.7211   31.8054 C.3     1  UNL1        0.1123
     14 C           6.1789   -2.5083   32.6109 C.3     1  UNL1        0.0939
     15 C           6.9091   -4.5939   23.5078 C.2     1  UNL1        0.2253
     16 O           7.9055   -5.3935   22.7218 O.2     1  UNL1       -0.2749
     17 N           4.6391   -2.5963   21.5043 N.am    1  UNL1       -0.2796
     18 C           4.1187   -2.2150   22.7010 C.3     1  UNL1        0.0933
     19 C           4.0079   -2.1335   22.9477 C.3     1  UNL1        0.0199
     20 C           5.1575   -3.0961   22.9052 C.3     1  UNL1        0.0018
     21 C           5.7336   -3.5186   21.5863 C.3     1  UNL1        0.0018
     22 C           5.1601   -2.9783   20.3098 C.3     1  UNL1        0.0199
     23 C           4.0106   -2.0157   20.3523 C.3     1  UNL1        0.0018
     24 C           3.4345   -1.5933   21.6712 C.3     1  UNL1        0.0018
     25 C           4.5879   -2.5591   21.6277 C.3     1  UNL1        0.0933
     26 C           4.0479    0.1784   33.1969 C.3     1  UNL1        0.0173
     27 C           5.4580   -0.0148   32.7233 C.3     1  UNL1        0.0577
     28 C           6.5069    1.0048   33.0552 C.3     1  UNL1        0.0173
@<TRIPOS>BOND
     1    26    27    1
     2    27    28    1
     3    27     1    1
     4     1     2    1
     5     2     3    1
     6     3     4    1
     7     4     5   am
     8     5     6    2
     9     5     7   am
    10     7     8    1
    11     8     9    1
    12     9    10    1
    13    10    15    1
    14    15    16    2
    15    15    17   am
    16    17    18    1
    17    18    19    1
    18    19    20    1
    19    20    21    1
    20    21    22    1
    21    22    23    1
    22    23    24    1
    23    22    25    1
    24    10    11    1
    25    11    12    1
    26     4    13    1
    27    13    14    1
    28    14     1    1
    29    12     7    1
    30    25    17    1
    31    24    19    1
