@<TRIPOS>MOLECULE
*****
 23 25 0 0 0
SMALL
GASTEIGER

@<TRIPOS>ATOM
      1 C          -5.3112  -17.9331   22.5952 C.2     1  UNL1        0.3551
      2 N          -4.3106  -18.3894   21.5751 N.2     1  UNL1        0.0803
      3 N          -5.0598  -19.0353   20.4475 N.2     1  UNL1       -0.0380
      4 C          -6.5234  -18.9782   20.7706 C.2     1  UNL1        0.1178
      5 C          -7.7348  -19.4585   20.0277 C.3     1  UNL1        0.0878
      6 C          -9.1015  -19.2575   20.6122 C.2     1  UNL1        0.0415
      7 CL        -10.3129  -19.7378   19.8692 Cl      1  UNL1       -0.0865
      8 C          -9.2569  -18.5763   21.9394 C.2     1  UNL1        0.0072
      9 C          -8.0456  -18.0960   22.6824 C.2     1  UNL1        0.0093
     10 C          -6.6788  -18.2970   22.0980 C.2     1  UNL1        0.1024
     11 C         -10.6238  -18.3754   22.5239 C.ar    1  UNL1        0.0005
     12 C         -10.9652  -18.9740   23.8562 C.ar    1  UNL1        0.0000
     13 C         -12.3320  -18.7730   24.4406 C.ar    1  UNL1        0.0000
     14 C         -13.3573  -17.9735   23.6927 C.ar    1  UNL1        0.0000
     15 C         -13.0159  -17.3749   22.3604 C.ar    1  UNL1        0.0000
     16 C         -11.6492  -17.5758   21.7760 C.ar    1  UNL1        0.0000
     17 C          -5.5233  -15.8526   24.1368 C.2     1  UNL1        0.3106
     18 O          -6.3599  -15.1675   23.0971 O.2     1  UNL1       -0.2469
     19 N          -4.9990  -17.2353   23.8858 N.am    1  UNL1       -0.1678
     20 H          -4.4500  -17.6850   24.5682 H       1  UNL1        0.3014
     21 C          -5.2112  -15.1549   25.4274 C.3     1  UNL1        0.1126
     22 C          -7.5292  -15.5986   26.5136 C.3     1  UNL1        0.0006
     23 C          -6.0455  -15.4217   26.6451 C.3     1  UNL1        0.0121
@<TRIPOS>BOND
     1    22    23    1
     2    23    21    1
     3    21    17    1
     4    17    18    2
     5    17    19   am
     6    19     1    1
     7     1     2    2
     8     2     3    1
     9     3     4    2
    10     4     5    1
    11     5     6    1
    12     6     7    1
    13     6     8    2
    14     8    11    1
    15    11    12   ar
    16    12    13   ar
    17    13    14   ar
    18    14    15   ar
    19    15    16   ar
    20     8     9    1
    21     9    10    2
    22    10     1    1
    23    10     4    1
    24    16    11   ar
    25    19    20    1
@<TRIPOS>MOLECULE
*****
 23 25 0 0 0
SMALL
GASTEIGER

@<TRIPOS>ATOM
      1 C          -9.7643  -16.4381   23.4332 C.2     1  UNL1        0.3551
      2 N         -11.2287  -16.5032   23.1150 N.2     1  UNL1        0.0803
      3 N         -11.4139  -17.4646   21.9786 N.2     1  UNL1       -0.0380
      4 C         -10.0639  -17.9936   21.5944 C.2     1  UNL1        0.1178
      5 C          -9.6313  -18.9711   20.5421 C.3     1  UNL1        0.0878
      6 C          -8.1791  -19.3141   20.3887 C.2     1  UNL1        0.0415
      7 CL         -7.7465  -20.2916   19.3363 Cl      1  UNL1       -0.0865
      8 C          -7.1597  -18.6797   21.2876 C.2     1  UNL1        0.0072
      9 C          -7.5923  -17.7022   22.3400 C.2     1  UNL1        0.0093
     10 C          -9.0445  -17.3592   22.4934 C.2     1  UNL1        0.1024
     11 C          -5.7074  -19.0228   21.1343 C.ar    1  UNL1        0.0005
     12 C          -4.8844  -19.3582   22.3426 C.ar    1  UNL1        0.0000
     13 C          -3.4322  -19.7012   22.1893 C.ar    1  UNL1        0.0000
     14 C          -2.8031  -19.7089   20.8276 C.ar    1  UNL1        0.0000
     15 C          -3.6262  -19.3735   19.6192 C.ar    1  UNL1        0.0000
     16 C          -5.0783  -19.0305   19.7726 C.ar    1  UNL1        0.0000
     17 C          -8.8063  -16.2042   25.8368 C.2     1  UNL1        0.3106
     18 O          -9.1149  -17.6483   26.1003 O.2     1  UNL1       -0.2469
     19 N          -9.1310  -15.5991   24.5033 N.am    1  UNL1       -0.1678
     20 H          -8.9284  -14.6513   24.3303 H       1  UNL1        0.3014
     21 C          -8.1729  -15.3653   26.9069 C.3     1  UNL1        0.1126
     22 C          -5.7156  -15.5051   26.0751 C.3     1  UNL1        0.0006
     23 C          -6.7082  -15.5035   27.1996 C.3     1  UNL1        0.0121
@<TRIPOS>BOND
     1    22    23    1
     2    23    21    1
     3    21    17    1
     4    17    18    2
     5    17    19   am
     6    19     1    1
     7     1     2    2
     8     2     3    1
     9     3     4    2
    10     4     5    1
    11     5     6    1
    12     6     7    1
    13     6     8    2
    14     8    11    1
    15    11    12   ar
    16    12    13   ar
    17    13    14   ar
    18    14    15   ar
    19    15    16   ar
    20     8     9    1
    21     9    10    2
    22    10     1    1
    23    10     4    1
    24    16    11   ar
    25    19    20    1
@<TRIPOS>MOLECULE
*****
 23 25 0 0 0
SMALL
GASTEIGER

@<TRIPOS>ATOM
      1 C          -7.8254  -19.1486   19.8197 C.2     1  UNL1        0.3551
      2 N          -8.6987  -19.8205   18.8020 N.2     1  UNL1        0.0803
      3 N         -10.0919  -19.8815   19.3546 N.2     1  UNL1       -0.0380
      4 C         -10.0797  -19.2472   20.7138 C.2     1  UNL1        0.1178
      5 C         -11.1630  -19.0236   21.7269 C.3     1  UNL1        0.0878
      6 C         -10.8456  -18.3470   23.0274 C.2     1  UNL1        0.0415
      7 CL        -11.9291  -18.1234   24.0405 Cl      1  UNL1       -0.0865
      8 C          -9.4449  -17.8941   23.3149 C.2     1  UNL1        0.0072
      9 C          -8.3615  -18.1177   22.3018 C.2     1  UNL1        0.0093
     10 C          -8.6789  -18.7943   21.0013 C.2     1  UNL1        0.1024
     11 C          -9.1275  -17.2174   24.6155 C.ar    1  UNL1        0.0005
     12 C          -9.2609  -17.9714   25.9053 C.ar    1  UNL1        0.0000
     13 C          -8.9435  -17.2948   27.2059 C.ar    1  UNL1        0.0000
     14 C          -8.4927  -15.8642   27.2166 C.ar    1  UNL1        0.0000
     15 C          -8.3593  -15.1102   25.9268 C.ar    1  UNL1        0.0000
     16 C          -8.6767  -15.7868   24.6262 C.ar    1  UNL1        0.0000
     17 C          -5.3606  -19.9344   20.0583 C.2     1  UNL1        0.3106
     18 O          -5.8334  -21.2606   20.5756 O.2     1  UNL1       -0.2469
     19 N          -6.3566  -18.8784   19.6804 N.am    1  UNL1       -0.1678
     20 H          -6.0462  -18.0079   19.3409 H       1  UNL1        0.3014
     21 C          -3.8917  -19.6642   19.9190 C.3     1  UNL1        0.1126
     22 C          -3.7509  -19.0494   22.4393 C.3     1  UNL1        0.0006
     23 C          -3.0737  -19.3234   21.1293 C.3     1  UNL1        0.0121
@<TRIPOS>BOND
     1    22    23    1
     2    23    21    1
     3    21    17    1
     4    17    18    2
     5    17    19   am
     6    19     1    1
     7     1     2    2
     8     2     3    1
     9     3     4    2
    10     4     5    1
    11     5     6    1
    12     6     7    1
    13     6     8    2
    14     8    11    1
    15    11    12   ar
    16    12    13   ar
    17    13    14   ar
    18    14    15   ar
    19    15    16   ar
    20     8     9    1
    21     9    10    2
    22    10     1    1
    23    10     4    1
    24    16    11   ar
    25    19    20    1
@<TRIPOS>MOLECULE
*****
 23 25 0 0 0
SMALL
GASTEIGER

@<TRIPOS>ATOM
      1 C          -3.8715  -17.7346   23.5003 C.2     1  UNL1        0.3551
      2 N          -2.4772  -17.9753   23.0025 N.2     1  UNL1        0.0803
      3 N          -2.5647  -18.8336   21.7754 N.2     1  UNL1       -0.0380
      4 C          -4.0132  -19.1233   21.5148 C.2     1  UNL1        0.1178
      5 C          -4.7011  -19.9178   20.4445 C.3     1  UNL1        0.0878
      6 C          -6.1966  -20.0331   20.4402 C.2     1  UNL1        0.0415
      7 CL         -6.8845  -20.8277   19.3699 Cl      1  UNL1       -0.0865
      8 C          -7.0042  -19.3539   21.5061 C.2     1  UNL1        0.0072
      9 C          -6.3164  -18.5593   22.5765 C.2     1  UNL1        0.0093
     10 C          -4.8208  -18.4440   22.5808 C.2     1  UNL1        0.1024
     11 C          -8.4999  -19.4692   21.5018 C.ar    1  UNL1        0.0005
     12 C          -9.2767  -19.1037   20.2719 C.ar    1  UNL1        0.0000
     13 C         -10.7723  -19.2190   20.2676 C.ar    1  UNL1        0.0000
     14 C         -11.4909  -19.6998   21.4933 C.ar    1  UNL1        0.0000
     15 C         -10.7141  -20.0653   22.7233 C.ar    1  UNL1        0.0000
     16 C          -9.2185  -19.9500   22.7275 C.ar    1  UNL1        0.0000
     17 C          -5.1092  -15.7064   24.5513 C.2     1  UNL1        0.3106
     18 O          -5.5898  -15.2948   23.1912 O.2     1  UNL1       -0.2469
     19 N          -4.2501  -16.9262   24.7058 N.am    1  UNL1       -0.1678
     20 H          -3.9347  -17.1963   25.5984 H       1  UNL1        0.3014
     21 C          -5.4878  -14.8981   25.7568 C.3     1  UNL1        0.1126
     22 C          -7.8291  -15.7673   26.4732 C.3     1  UNL1        0.0006
     23 C          -6.3924  -15.4851   26.7995 C.3     1  UNL1        0.0121
@<TRIPOS>BOND
     1    22    23    1
     2    23    21    1
     3    21    17    1
     4    17    18    2
     5    17    19   am
     6    19     1    1
     7     1     2    2
     8     2     3    1
     9     3     4    2
    10     4     5    1
    11     5     6    1
    12     6     7    1
    13     6     8    2
    14     8    11    1
    15    11    12   ar
    16    12    13   ar
    17    13    14   ar
    18    14    15   ar
    19    15    16   ar
    20     8     9    1
    21     9    10    2
    22    10     1    1
    23    10     4    1
    24    16    11   ar
    25    19    20    1
@<TRIPOS>MOLECULE
*****
 23 25 0 0 0
SMALL
GASTEIGER

@<TRIPOS>ATOM
      1 C          -6.5741  -19.4060   20.5929 C.2     1  UNL1        0.3551
      2 N          -7.4735  -19.7740   19.4502 N.2     1  UNL1        0.0803
      3 N          -8.7990  -19.1071   19.6703 N.2     1  UNL1       -0.0380
      4 C          -8.7189  -18.3271   20.9489 C.2     1  UNL1        0.1178
      5 C          -9.7203  -17.4724   21.6677 C.3     1  UNL1        0.0878
      6 C          -9.3467  -16.8024   22.9567 C.2     1  UNL1        0.0415
      7 CL        -10.3482  -15.9477   23.6755 Cl      1  UNL1       -0.0865
      8 C          -7.9717  -16.9871   23.5269 C.2     1  UNL1        0.0072
      9 C          -6.9702  -17.8418   22.8082 C.2     1  UNL1        0.0093
     10 C          -7.3438  -18.5118   21.5192 C.2     1  UNL1        0.1024
     11 C          -7.5981  -16.3171   24.8160 C.ar    1  UNL1        0.0005
     12 C          -6.2780  -15.6161   24.9418 C.ar    1  UNL1        0.0000
     13 C          -5.9044  -14.9461   26.2308 C.ar    1  UNL1        0.0000
     14 C          -6.8509  -14.9772   27.3940 C.ar    1  UNL1        0.0000
     15 C          -8.1710  -15.6782   27.2683 C.ar    1  UNL1        0.0000
     16 C          -8.5446  -16.3482   25.9793 C.ar    1  UNL1        0.0000
     17 C          -4.0434  -19.1326   20.0730 C.2     1  UNL1        0.3106
     18 O          -4.3521  -17.9639   19.1848 O.2     1  UNL1       -0.2469
     19 N          -5.1544  -19.8537   20.7770 N.am    1  UNL1       -0.1678
     20 H          -4.9518  -20.6207   21.3599 H       1  UNL1        0.3014
     21 C          -2.6236  -19.5803   20.2571 C.3     1  UNL1        0.1126
     22 C          -1.6321  -17.2828   20.9560 C.3     1  UNL1        0.0006
     23 C          -1.5089  -18.5777   20.2091 C.3     1  UNL1        0.0121
@<TRIPOS>BOND
     1    22    23    1
     2    23    21    1
     3    21    17    1
     4    17    18    2
     5    17    19   am
     6    19     1    1
     7     1     2    2
     8     2     3    1
     9     3     4    2
    10     4     5    1
    11     5     6    1
    12     6     7    1
    13     6     8    2
    14     8    11    1
    15    11    12   ar
    16    12    13   ar
    17    13    14   ar
    18    14    15   ar
    19    15    16   ar
    20     8     9    1
    21     9    10    2
    22    10     1    1
    23    10     4    1
    24    16    11   ar
    25    19    20    1
@<TRIPOS>MOLECULE
*****
 23 25 0 0 0
SMALL
GASTEIGER

@<TRIPOS>ATOM
      1 C         -11.8586   -6.9698   18.9018 C.2     1  UNL1        0.3551
      2 N         -10.3943   -7.2924   18.8618 N.2     1  UNL1        0.0803
      3 N          -9.6382   -6.0018   18.7487 N.2     1  UNL1       -0.0380
      4 C         -10.6353   -4.8816   18.7188 C.2     1  UNL1        0.1178
      5 C         -10.4709   -3.3941   18.6176 C.3     1  UNL1        0.0878
      6 C         -11.6789   -2.5048   18.6110 C.2     1  UNL1        0.0415
      7 CL        -11.5145   -1.0172   18.5098 Cl      1  UNL1       -0.0865
      8 C         -13.0511   -3.1030   18.7056 C.2     1  UNL1        0.0072
      9 C         -13.2155   -4.5906   18.8068 C.2     1  UNL1        0.0093
     10 C         -12.0076   -5.4798   18.8134 C.2     1  UNL1        0.1024
     11 C         -14.2591   -2.2137   18.6991 C.ar    1  UNL1        0.0005
     12 C         -14.8444   -1.7533   17.3970 C.ar    1  UNL1        0.0000
     13 C         -16.0524   -0.8640   17.3905 C.ar    1  UNL1        0.0000
     14 C         -16.6750   -0.4351   18.6860 C.ar    1  UNL1        0.0000
     15 C         -16.0896   -0.8955   19.9881 C.ar    1  UNL1        0.0000
     16 C         -14.8817   -1.7848   19.9946 C.ar    1  UNL1        0.0000
     17 C         -13.8237   -8.2742   17.8122 C.2     1  UNL1        0.3106
     18 O         -13.5509   -7.5925   16.5042 O.2     1  UNL1       -0.2469
     19 N         -12.9776   -7.9628   19.0110 N.am    1  UNL1       -0.1678
     20 H         -13.1566   -8.4102   19.8695 H       1  UNL1        0.3014
     21 C         -14.9426   -9.2672   17.9215 C.3     1  UNL1        0.1126
     22 C         -16.4984   -8.8245   19.9546 C.3     1  UNL1        0.0006
     23 C         -16.2716   -8.8420   18.4719 C.3     1  UNL1        0.0121
@<TRIPOS>BOND
     1    22    23    1
     2    23    21    1
     3    21    17    1
     4    17    18    2
     5    17    19   am
     6    19     1    1
     7     1     2    2
     8     2     3    1
     9     3     4    2
    10     4     5    1
    11     5     6    1
    12     6     7    1
    13     6     8    2
    14     8    11    1
    15    11    12   ar
    16    12    13   ar
    17    13    14   ar
    18    14    15   ar
    19    15    16   ar
    20     8     9    1
    21     9    10    2
    22    10     1    1
    23    10     4    1
    24    16    11   ar
    25    19    20    1
@<TRIPOS>MOLECULE
*****
 23 25 0 0 0
SMALL
GASTEIGER

@<TRIPOS>ATOM
      1 C         -13.0552   -4.1192   19.6487 C.2     1  UNL1        0.3551
      2 N         -13.1708   -2.6752   20.0378 N.2     1  UNL1        0.0803
      3 N         -14.6267   -2.3554   20.2056 N.2     1  UNL1       -0.0380
      4 C         -15.4109   -3.6018   19.9202 C.2     1  UNL1        0.1178
      5 C         -16.8839   -3.8850   19.9292 C.3     1  UNL1        0.0878
      6 C         -17.3856   -5.2582   19.5941 C.2     1  UNL1        0.0415
      7 CL        -18.8587   -5.5414   19.6032 Cl      1  UNL1       -0.0865
      8 C         -16.4145   -6.3483   19.2499 C.2     1  UNL1        0.0072
      9 C         -14.9414   -6.0651   19.2408 C.2     1  UNL1        0.0093
     10 C         -14.4397   -4.6918   19.5760 C.2     1  UNL1        0.1024
     11 C         -16.9163   -7.7216   18.9147 C.ar    1  UNL1        0.0005
     12 C         -17.6255   -7.9646   17.6155 C.ar    1  UNL1        0.0000
     13 C         -18.1273   -9.3379   17.2804 C.ar    1  UNL1        0.0000
     14 C         -17.9199  -10.4681   18.2445 C.ar    1  UNL1        0.0000
     15 C         -17.2107  -10.2251   19.5437 C.ar    1  UNL1        0.0000
     16 C         -16.7089   -8.8519   19.8788 C.ar    1  UNL1        0.0000
     17 C         -10.9952   -4.5758   18.1328 C.2     1  UNL1        0.3106
     18 O         -11.4872   -3.5499   17.1552 O.2     1  UNL1       -0.2469
     19 N         -11.7792   -4.8604   19.3795 N.am    1  UNL1       -0.1678
     20 H         -11.4563   -5.5337   20.0211 H       1  UNL1        0.3014
     21 C          -9.7192   -5.3170   17.8636 C.3     1  UNL1        0.1126
     22 C          -9.6098   -7.8301   18.5136 C.3     1  UNL1        0.0006
     23 C          -9.2679   -6.3980   18.8005 C.3     1  UNL1        0.0121
@<TRIPOS>BOND
     1    22    23    1
     2    23    21    1
     3    21    17    1
     4    17    18    2
     5    17    19   am
     6    19     1    1
     7     1     2    2
     8     2     3    1
     9     3     4    2
    10     4     5    1
    11     5     6    1
    12     6     7    1
    13     6     8    2
    14     8    11    1
    15    11    12   ar
    16    12    13   ar
    17    13    14   ar
    18    14    15   ar
    19    15    16   ar
    20     8     9    1
    21     9    10    2
    22    10     1    1
    23    10     4    1
    24    16    11   ar
    25    19    20    1
@<TRIPOS>MOLECULE
*****
 23 25 0 0 0
SMALL
GASTEIGER

@<TRIPOS>ATOM
      1 C          -5.3788  -19.4914   21.8670 C.2     1  UNL1        0.3551
      2 N          -4.6032  -20.1978   20.7950 N.2     1  UNL1        0.0803
      3 N          -5.5366  -20.4760   19.6542 N.2     1  UNL1       -0.0380
      4 C          -6.8892  -19.9414   20.0213 C.2     1  UNL1        0.1178
      5 C          -8.1971  -19.9301   19.2870 C.3     1  UNL1        0.0878
      6 C          -9.4075  -19.3104   19.9202 C.2     1  UNL1        0.0415
      7 CL        -10.7154  -19.2991   19.1858 Cl      1  UNL1       -0.0865
      8 C          -9.3099  -18.7019   21.2877 C.2     1  UNL1        0.0072
      9 C          -8.0020  -18.7132   22.0221 C.2     1  UNL1        0.0093
     10 C          -6.7917  -19.3330   21.3889 C.2     1  UNL1        0.1024
     11 C         -10.5203  -18.0822   21.9209 C.ar    1  UNL1        0.0005
     12 C         -10.8316  -16.6339   21.6851 C.ar    1  UNL1        0.0000
     13 C         -12.0420  -16.0142   22.3183 C.ar    1  UNL1        0.0000
     14 C         -12.9410  -16.8427   23.1874 C.ar    1  UNL1        0.0000
     15 C         -12.6297  -18.2909   23.4233 C.ar    1  UNL1        0.0000
     16 C         -11.4194  -18.9107   22.7900 C.ar    1  UNL1        0.0000
     17 C          -3.9295  -17.8322   23.2442 C.2     1  UNL1        0.3106
     18 O          -3.5643  -17.1052   21.9840 O.2     1  UNL1       -0.2469
     19 N          -4.8367  -19.0253   23.1857 N.am    1  UNL1       -0.1678
     20 H          -5.0764  -19.5025   24.0128 H       1  UNL1        0.3014
     21 C          -3.3875  -17.3661   24.5629 C.3     1  UNL1        0.1126
     22 C          -5.2707  -15.7084   25.2379 C.3     1  UNL1        0.0006
     23 C          -4.3159  -16.8071   25.6001 C.3     1  UNL1        0.0121
@<TRIPOS>BOND
     1    22    23    1
     2    23    21    1
     3    21    17    1
     4    17    18    2
     5    17    19   am
     6    19     1    1
     7     1     2    2
     8     2     3    1
     9     3     4    2
    10     4     5    1
    11     5     6    1
    12     6     7    1
    13     6     8    2
    14     8    11    1
    15    11    12   ar
    16    12    13   ar
    17    13    14   ar
    18    14    15   ar
    19    15    16   ar
    20     8     9    1
    21     9    10    2
    22    10     1    1
    23    10     4    1
    24    16    11   ar
    25    19    20    1
@<TRIPOS>MOLECULE
*****
 23 25 0 0 0
SMALL
GASTEIGER

@<TRIPOS>ATOM
      1 C         -14.1912   -3.4752   20.0243 C.2     1  UNL1        0.3551
      2 N         -12.7075   -3.2908   19.9034 N.2     1  UNL1        0.0803
      3 N         -12.1206   -4.5746   19.3959 N.2     1  UNL1       -0.0380
      4 C         -13.2416   -5.5524   19.2031 C.2     1  UNL1        0.1178
      5 C         -13.2625   -6.9737   18.7241 C.3     1  UNL1        0.0878
      6 C         -14.5631   -7.7155   18.6335 C.2     1  UNL1        0.0415
      7 CL        -14.5839   -9.1369   18.1545 Cl      1  UNL1       -0.0865
      8 C         -15.8427   -7.0361   19.0218 C.2     1  UNL1        0.0072
      9 C         -15.8218   -5.6147   19.5008 C.2     1  UNL1        0.0093
     10 C         -14.5213   -4.8729   19.5915 C.2     1  UNL1        0.1024
     11 C         -17.1433   -7.7780   18.9312 C.ar    1  UNL1        0.0005
     12 C         -17.7861   -8.0044   17.5949 C.ar    1  UNL1        0.0000
     13 C         -19.0866   -8.7462   17.5043 C.ar    1  UNL1        0.0000
     14 C         -19.7444   -9.2617   18.7499 C.ar    1  UNL1        0.0000
     15 C         -19.1016   -9.0354   20.0862 C.ar    1  UNL1        0.0000
     16 C         -17.8011   -8.2935   20.1768 C.ar    1  UNL1        0.0000
     17 C         -16.0251   -1.7105   19.5021 C.2     1  UNL1        0.3106
     18 O         -15.8965   -2.0101   18.0379 O.2     1  UNL1       -0.2469
     19 N         -15.1724   -2.4430   20.4952 N.am    1  UNL1       -0.1678
     20 H         -15.2568   -2.2464   21.4562 H       1  UNL1        0.3014
     21 C         -17.0064   -0.6784   19.9731 C.3     1  UNL1        0.1126
     22 C         -17.1812    1.5924   21.2233 C.3     1  UNL1        0.0006
     23 C         -16.5713    0.7468   20.1449 C.3     1  UNL1        0.0121
@<TRIPOS>BOND
     1    22    23    1
     2    23    21    1
     3    21    17    1
     4    17    18    2
     5    17    19   am
     6    19     1    1
     7     1     2    2
     8     2     3    1
     9     3     4    2
    10     4     5    1
    11     5     6    1
    12     6     7    1
    13     6     8    2
    14     8    11    1
    15    11    12   ar
    16    12    13   ar
    17    13    14   ar
    18    14    15   ar
    19    15    16   ar
    20     8     9    1
    21     9    10    2
    22    10     1    1
    23    10     4    1
    24    16    11   ar
    25    19    20    1
