@<TRIPOS>MOLECULE
*****
 30 33 0 0 0
SMALL
GASTEIGER

@<TRIPOS>ATOM
      1 C          -6.6686  -20.2303   20.8243 C.3     1  UNL1        0.0071
      2 C          -7.1235  -20.2174   22.2535 C.3     1  UNL1        0.0177
      3 C          -8.4790  -19.6793   22.6043 C.3     1  UNL1        0.0721
      4 N          -9.3795  -19.1541   21.5258 N.3     1  UNL1       -0.2724
      5 C          -8.9246  -19.1670   20.0965 C.3     1  UNL1        0.0721
      6 C          -7.5692  -19.7052   19.7458 C.3     1  UNL1        0.0177
      7 C          -5.3131  -20.7685   20.4734 C.3     1  UNL1        0.0265
      8 O          -1.6663  -18.0508   22.9863 O.3     1  UNL1       -0.5050
      9 C          -2.3029  -18.4927   21.7020 C.ar    1  UNL1        0.1395
     10 C          -3.4897  -19.4096   21.7299 C.ar    1  UNL1        0.0329
     11 C          -4.1263  -19.8515   20.4456 C.ar    1  UNL1       -0.0192
     12 C          -3.5762  -19.3766   19.1335 C.ar    1  UNL1       -0.0036
     13 C          -2.3894  -18.4596   19.1056 C.ar    1  UNL1        0.0094
     14 C          -1.7527  -18.0177   20.3899 C.ar    1  UNL1        0.0682
     15 BR         -0.5660  -17.1008   20.3620 Br      1  UNL1       -0.0459
     16 H          -2.0099  -18.3475   23.8060 H       1  UNL1        0.2922
     17 C         -10.7351  -18.6160   21.8766 C.3     1  UNL1        0.0768
     18 C         -10.8579  -17.3163   22.6154 C.3     1  UNL1        0.0437
     19 C          -9.6349  -16.6558   23.1797 C.ar    1  UNL1       -0.0208
     20 C          -8.6943  -15.9192   22.2727 C.ar    1  UNL1       -0.0011
     21 C          -7.4715  -15.2588   22.8370 C.ar    1  UNL1        0.0363
     22 C          -7.1893  -15.3351   24.3082 C.ar    1  UNL1        0.1367
     23 C          -8.1298  -16.0717   25.2152 C.ar    1  UNL1        0.0380
     24 C          -9.3527  -16.7321   24.6509 C.ar    1  UNL1       -0.0032
     25 C          -7.8476  -16.1480   26.6864 C.3     1  UNL1        0.1393
     26 O          -8.7882  -16.8846   27.5933 O.3     1  UNL1       -0.3798
     27 C          -6.6248  -15.4876   27.2507 C.3     1  UNL1        0.0812
     28 C          -5.6841  -14.7509   26.3438 C.3     1  UNL1        0.2083
     29 O          -5.9663  -14.6746   24.8725 O.3     1  UNL1       -0.4756
     30 H          -8.4611  -16.8378   28.5053 H       1  UNL1        0.2108
@<TRIPOS>BOND
     1     8     9    1
     2     9    10   ar
     3    10    11   ar
     4    11     7    1
     5     7     1    1
     6     1     2    1
     7     2     3    1
     8     3     4    1
     9     4    17    1
    10    17    18    1
    11    18    19    1
    12    19    20   ar
    13    20    21   ar
    14    21    22   ar
    15    22    23   ar
    16    23    24   ar
    17    23    25    1
    18    25    26    1
    19    25    27    1
    20    27    28    1
    21    28    29    1
    22     4     5    1
    23     5     6    1
    24    11    12   ar
    25    12    13   ar
    26    13    14   ar
    27    14    15    1
    28    14     9   ar
    29     6     1    1
    30    24    19   ar
    31    29    22    1
    32     8    16    1
    33    26    30    1
@<TRIPOS>MOLECULE
*****
 30 33 0 0 0
SMALL
GASTEIGER

@<TRIPOS>ATOM
      1 C         -14.5172   -7.3063   17.0493 C.3     1  UNL1        0.0071
      2 C         -13.4971   -7.5734   15.9825 C.3     1  UNL1        0.0177
      3 C         -12.0500   -7.7210   16.3487 C.3     1  UNL1        0.0721
      4 N         -11.6230   -7.6015   17.7817 N.3     1  UNL1       -0.2724
      5 C         -12.6431   -7.3344   18.8484 C.3     1  UNL1        0.0721
      6 C         -14.0902   -7.1868   18.4822 C.3     1  UNL1        0.0177
      7 C         -15.9643   -7.1588   16.6831 C.3     1  UNL1        0.0265
      8 O         -19.0408  -10.9732   18.4109 O.3     1  UNL1       -0.5050
      9 C         -18.5670   -9.5519   18.4855 C.ar    1  UNL1        0.1395
     10 C         -17.5025   -9.0660   17.5470 C.ar    1  UNL1        0.0329
     11 C         -17.0288   -7.6447   17.6216 C.ar    1  UNL1       -0.0192
     12 C         -17.6194   -6.7094   18.6346 C.ar    1  UNL1       -0.0036
     13 C         -18.6839   -7.1953   19.5732 C.ar    1  UNL1        0.0094
     14 C         -19.1577   -8.6166   19.4986 C.ar    1  UNL1        0.0682
     15 BR        -20.2221   -9.1025   20.4371 Br      1  UNL1       -0.0459
     16 H         -18.6718  -11.5574   17.7781 H       1  UNL1        0.2922
     17 C         -10.1758   -7.7490   18.1479 C.3     1  UNL1        0.0768
     18 C          -9.3994   -6.5600   18.6310 C.3     1  UNL1        0.0437
     19 C          -9.7227   -5.1910   18.1099 C.ar    1  UNL1       -0.0208
     20 C          -9.0482   -4.6815   16.8709 C.ar    1  UNL1       -0.0011
     21 C          -9.3714   -3.3126   16.3499 C.ar    1  UNL1        0.0363
     22 C         -10.3693   -2.4532   17.0680 C.ar    1  UNL1        0.1367
     23 C         -11.0438   -2.9627   18.3071 C.ar    1  UNL1        0.0380
     24 C         -10.7205   -4.3316   18.8281 C.ar    1  UNL1       -0.0032
     25 C         -12.0417   -2.1032   19.0252 C.3     1  UNL1        0.1393
     26 O         -12.7162   -2.6127   20.2643 O.3     1  UNL1       -0.3798
     27 C         -12.3649   -0.7343   18.5042 C.3     1  UNL1        0.0812
     28 C         -11.6904   -0.2247   17.2651 C.3     1  UNL1        0.2083
     29 O         -10.6925   -1.0842   16.5470 O.3     1  UNL1       -0.4756
     30 H         -13.3267   -1.9381   20.6007 H       1  UNL1        0.2108
@<TRIPOS>BOND
     1     8     9    1
     2     9    10   ar
     3    10    11   ar
     4    11     7    1
     5     7     1    1
     6     1     2    1
     7     2     3    1
     8     3     4    1
     9     4    17    1
    10    17    18    1
    11    18    19    1
    12    19    20   ar
    13    20    21   ar
    14    21    22   ar
    15    22    23   ar
    16    23    24   ar
    17    23    25    1
    18    25    26    1
    19    25    27    1
    20    27    28    1
    21    28    29    1
    22     4     5    1
    23     5     6    1
    24    11    12   ar
    25    12    13   ar
    26    13    14   ar
    27    14    15    1
    28    14     9   ar
    29     6     1    1
    30    24    19   ar
    31    29    22    1
    32     8    16    1
    33    26    30    1
@<TRIPOS>MOLECULE
*****
 30 33 0 0 0
SMALL
GASTEIGER

@<TRIPOS>ATOM
      1 C          -3.9277  -17.0972   24.3161 C.3     1  UNL1        0.0071
      2 C          -4.1562  -17.0787   25.7985 C.3     1  UNL1        0.0177
      3 C          -5.3544  -16.3753   26.3638 C.3     1  UNL1        0.0721
      4 N          -6.3240  -15.6906   25.4468 N.3     1  UNL1       -0.2724
      5 C          -6.0955  -15.7092   23.9645 C.3     1  UNL1        0.0721
      6 C          -4.8974  -16.4125   23.3991 C.3     1  UNL1        0.0177
      7 C          -2.7295  -17.8006   23.7507 C.3     1  UNL1        0.0265
      8 O          -3.4687  -19.9731   19.0888 O.3     1  UNL1       -0.5050
      9 C          -2.8639  -18.8949   19.9384 C.ar    1  UNL1        0.1395
     10 C          -3.0991  -18.8868   21.4198 C.ar    1  UNL1        0.0329
     11 C          -2.4943  -17.8086   22.2693 C.ar    1  UNL1       -0.0192
     12 C          -1.6544  -16.7385   21.6375 C.ar    1  UNL1       -0.0036
     13 C          -1.4192  -16.7465   20.1560 C.ar    1  UNL1        0.0094
     14 C          -2.0240  -17.8247   19.3064 C.ar    1  UNL1        0.0682
     15 BR         -1.7888  -17.8327   17.8250 Br      1  UNL1       -0.0459
     16 H          -3.9933  -20.6416   19.4835 H       1  UNL1        0.2922
     17 C          -7.5223  -14.9872   26.0123 C.3     1  UNL1        0.0768
     18 C          -8.7843  -15.7526   26.2796 C.3     1  UNL1        0.0437
     19 C          -9.2839  -16.7492   25.2760 C.ar    1  UNL1       -0.0208
     20 C          -9.5298  -18.1702   25.6886 C.ar    1  UNL1       -0.0011
     21 C         -10.0295  -19.1668   24.6851 C.ar    1  UNL1        0.0363
     22 C         -10.2832  -18.7424   23.2689 C.ar    1  UNL1        0.1367
     23 C         -10.0373  -17.3214   22.8563 C.ar    1  UNL1        0.0380
     24 C          -9.5377  -16.3248   23.8599 C.ar    1  UNL1       -0.0032
     25 C         -10.2910  -16.8970   21.4402 C.3     1  UNL1        0.1393
     26 O         -10.0451  -15.4760   21.0276 O.3     1  UNL1       -0.3798
     27 C         -10.7907  -17.8935   20.4366 C.3     1  UNL1        0.0812
     28 C         -11.0366  -19.3146   20.8492 C.3     1  UNL1        0.2083
     29 O         -10.7829  -19.7390   22.2653 O.3     1  UNL1       -0.4756
     30 H         -10.2573  -15.3711   20.0869 H       1  UNL1        0.2108
@<TRIPOS>BOND
     1     8     9    1
     2     9    10   ar
     3    10    11   ar
     4    11     7    1
     5     7     1    1
     6     1     2    1
     7     2     3    1
     8     3     4    1
     9     4    17    1
    10    17    18    1
    11    18    19    1
    12    19    20   ar
    13    20    21   ar
    14    21    22   ar
    15    22    23   ar
    16    23    24   ar
    17    23    25    1
    18    25    26    1
    19    25    27    1
    20    27    28    1
    21    28    29    1
    22     4     5    1
    23     5     6    1
    24    11    12   ar
    25    12    13   ar
    26    13    14   ar
    27    14    15    1
    28    14     9   ar
    29     6     1    1
    30    24    19   ar
    31    29    22    1
    32     8    16    1
    33    26    30    1
@<TRIPOS>MOLECULE
*****
 30 33 0 0 0
SMALL
GASTEIGER

@<TRIPOS>ATOM
      1 C         -13.0404   -7.1087   17.7650 C.3     1  UNL1        0.0071
      2 C         -13.2011   -6.1241   16.6450 C.3     1  UNL1        0.0177
      3 C         -12.4715   -4.8142   16.6875 C.3     1  UNL1        0.0721
      4 N         -11.5813   -4.4889   17.8502 N.3     1  UNL1       -0.2724
      5 C         -11.4207   -5.4735   18.9703 C.3     1  UNL1        0.0721
      6 C         -12.1502   -6.7834   18.9277 C.3     1  UNL1        0.0177
      7 C         -13.7700   -8.4187   17.7225 C.3     1  UNL1        0.0265
      8 O         -18.0778  -11.1901   18.5951 O.3     1  UNL1       -0.5050
      9 C         -17.3020   -9.9146   18.7406 C.ar    1  UNL1        0.1395
     10 C         -15.9239   -9.8044   18.1588 C.ar    1  UNL1        0.0329
     11 C         -15.1481   -8.5289   18.3043 C.ar    1  UNL1       -0.0192
     12 C         -15.7505   -7.3635   19.0316 C.ar    1  UNL1       -0.0036
     13 C         -17.1287   -7.4736   19.6135 C.ar    1  UNL1        0.0094
     14 C         -17.9045   -8.7492   19.4680 C.ar    1  UNL1        0.0682
     15 BR        -19.2826   -8.8593   20.0498 Br      1  UNL1       -0.0459
     16 H         -17.7015  -11.9181   18.1408 H       1  UNL1        0.2922
     17 C         -10.8518   -3.1789   17.8927 C.3     1  UNL1        0.0768
     18 C         -11.2416   -2.1356   18.8974 C.3     1  UNL1        0.0437
     19 C         -12.6046   -1.5118   18.8406 C.ar    1  UNL1       -0.0208
     20 C         -12.7772   -0.1379   18.2641 C.ar    1  UNL1       -0.0011
     21 C         -14.1402    0.4858   18.2073 C.ar    1  UNL1        0.0363
     22 C         -15.3306   -0.2645   18.7270 C.ar    1  UNL1        0.1367
     23 C         -15.1580   -1.6384   19.3035 C.ar    1  UNL1        0.0380
     24 C         -13.7950   -2.2621   19.3603 C.ar    1  UNL1       -0.0032
     25 C         -16.3483   -2.3887   19.8232 C.3     1  UNL1        0.1393
     26 O         -16.1757   -3.7627   20.3997 O.3     1  UNL1       -0.3798
     27 C         -17.7113   -1.7651   19.7664 C.3     1  UNL1        0.0812
     28 C         -17.8840   -0.3910   19.1899 C.3     1  UNL1        0.2083
     29 O         -16.6936    0.3593   18.6702 O.3     1  UNL1       -0.4756
     30 H         -17.0373   -4.1034   20.6869 H       1  UNL1        0.2108
@<TRIPOS>BOND
     1     8     9    1
     2     9    10   ar
     3    10    11   ar
     4    11     7    1
     5     7     1    1
     6     1     2    1
     7     2     3    1
     8     3     4    1
     9     4    17    1
    10    17    18    1
    11    18    19    1
    12    19    20   ar
    13    20    21   ar
    14    21    22   ar
    15    22    23   ar
    16    23    24   ar
    17    23    25    1
    18    25    26    1
    19    25    27    1
    20    27    28    1
    21    28    29    1
    22     4     5    1
    23     5     6    1
    24    11    12   ar
    25    12    13   ar
    26    13    14   ar
    27    14    15    1
    28    14     9   ar
    29     6     1    1
    30    24    19   ar
    31    29    22    1
    32     8    16    1
    33    26    30    1
@<TRIPOS>MOLECULE
*****
 30 33 0 0 0
SMALL
GASTEIGER

@<TRIPOS>ATOM
      1 C          -3.6757  -17.3547   24.5452 C.3     1  UNL1        0.0071
      2 C          -3.8081  -17.4955   26.0326 C.3     1  UNL1        0.0177
      3 C          -4.8888  -16.7546   26.7628 C.3     1  UNL1        0.0721
      4 N          -5.8370  -15.8730   26.0055 N.3     1  UNL1       -0.2724
      5 C          -5.7046  -15.7322   24.5181 C.3     1  UNL1        0.0721
      6 C          -4.6239  -16.4730   23.7879 C.3     1  UNL1        0.0177
      7 C          -2.5950  -18.0956   23.8149 C.3     1  UNL1        0.0265
      8 O          -3.5499  -19.9910   19.0720 O.3     1  UNL1       -0.5050
      9 C          -2.9607  -18.9287   19.9520 C.ar    1  UNL1        0.1395
     10 C          -3.0724  -19.0433   21.4435 C.ar    1  UNL1        0.0329
     11 C          -2.4832  -17.9811   22.3235 C.ar    1  UNL1       -0.0192
     12 C          -1.7822  -16.8043   21.7122 C.ar    1  UNL1       -0.0036
     13 C          -1.6704  -16.6897   20.2207 C.ar    1  UNL1        0.0094
     14 C          -2.2597  -17.7519   19.3406 C.ar    1  UNL1        0.0682
     15 BR         -2.1479  -17.6374   17.8492 Br      1  UNL1       -0.0459
     16 H          -3.9878  -20.7260   19.4539 H       1  UNL1        0.2922
     17 C          -6.9178  -15.1321   26.7358 C.3     1  UNL1        0.0768
     18 C          -8.3202  -15.6640   26.7405 C.3     1  UNL1        0.0437
     19 C          -8.8916  -16.2836   25.4996 C.ar    1  UNL1       -0.0208
     20 C          -9.0478  -15.4619   24.2546 C.ar    1  UNL1       -0.0011
     21 C          -9.6191  -16.0815   23.0138 C.ar    1  UNL1        0.0363
     22 C         -10.0342  -17.5229   23.0181 C.ar    1  UNL1        0.1367
     23 C          -9.8780  -18.3447   24.2631 C.ar    1  UNL1        0.0380
     24 C          -9.3067  -17.7251   25.5039 C.ar    1  UNL1       -0.0032
     25 C         -10.2931  -19.7861   24.2674 C.3     1  UNL1        0.1393
     26 O         -10.1369  -20.6079   25.5125 O.3     1  UNL1       -0.3798
     27 C         -10.8644  -20.4057   23.0266 C.3     1  UNL1        0.0812
     28 C         -11.0207  -19.5840   21.7815 C.3     1  UNL1        0.2083
     29 O         -10.6056  -18.1425   21.7772 O.3     1  UNL1       -0.4756
     30 H         -10.4504  -21.5105   25.3456 H       1  UNL1        0.2108
@<TRIPOS>BOND
     1     8     9    1
     2     9    10   ar
     3    10    11   ar
     4    11     7    1
     5     7     1    1
     6     1     2    1
     7     2     3    1
     8     3     4    1
     9     4    17    1
    10    17    18    1
    11    18    19    1
    12    19    20   ar
    13    20    21   ar
    14    21    22   ar
    15    22    23   ar
    16    23    24   ar
    17    23    25    1
    18    25    26    1
    19    25    27    1
    20    27    28    1
    21    28    29    1
    22     4     5    1
    23     5     6    1
    24    11    12   ar
    25    12    13   ar
    26    13    14   ar
    27    14    15    1
    28    14     9   ar
    29     6     1    1
    30    24    19   ar
    31    29    22    1
    32     8    16    1
    33    26    30    1
