@<TRIPOS>MOLECULE
*****
 28 31 0 0 0
SMALL
GASTEIGER

@<TRIPOS>ATOM
      1 O          -5.7900  -20.3282   21.2804 O.3     1  UNL1       -0.4688
      2 C          -4.6299  -19.4658   21.6805 C.ar    1  UNL1        0.1453
      3 C          -3.2579  -19.7614   21.1512 C.ar    1  UNL1        0.0578
      4 C          -2.0977  -18.8989   21.5513 C.ar    1  UNL1        0.1052
      5 N          -2.3095  -17.7408   22.4807 N.ar    1  UNL1       -0.2100
      6 C          -3.6815  -17.4451   23.0100 C.ar    1  UNL1        0.2280
      7 C          -4.8417  -18.3076   22.6099 C.ar    1  UNL1        0.0946
      8 O          -3.8934  -16.2870   23.9394 O.3     1  UNL1       -0.4602
      9 C          -5.1005  -15.4104   23.7825 C.3     1  UNL1        0.2072
     10 C          -6.1758  -15.4206   24.8282 C.3     1  UNL1        0.0488
     11 C          -7.6188  -15.4544   24.4200 C.3     1  UNL1        0.0359
     12 C          -8.6941  -15.4646   25.4657 C.3     1  UNL1        0.1423
     13 O          -8.3264  -15.4410   26.9198 O.3     1  UNL1       -0.3538
     14 C          -6.8834  -15.4072   27.3281 C.3     1  UNL1        0.1423
     15 C          -5.8081  -15.3970   26.2823 C.3     1  UNL1        0.0359
     16 C          -6.8718  -20.6377   22.2724 C.3     1  UNL1        0.2506
     17 C          -7.7424  -19.4160   19.6745 C.3     1  UNL1        0.0358
     18 C          -8.6329  -19.3316   20.8786 C.2     1  UNL1        0.0342
     19 C          -8.1976  -19.9425   22.1776 C.2     1  UNL1        0.1013
     20 N          -9.0880  -19.8582   23.3817 N.2     1  UNL1       -0.2501
     21 C         -10.4139  -19.1630   23.2869 C.2     1  UNL1        0.0661
     22 C         -11.3043  -19.0786   24.4911 C.3     1  UNL1        0.0718
     23 C         -12.6301  -18.3834   24.3962 C.2     1  UNL1       -0.0198
     24 C         -13.0654  -17.7726   23.0972 C.2     1  UNL1       -0.0040
     25 C         -12.1749  -17.8569   21.8931 C.2     1  UNL1        0.0040
     26 C         -10.8492  -18.5521   21.9880 C.2     1  UNL1        0.0525
     27 C          -9.9587  -18.6364   20.7838 C.2     1  UNL1        0.1940
     28 O         -10.3940  -18.0255   19.4848 O.2     1  UNL1       -0.2868
@<TRIPOS>BOND
     1    17    18    1
     2    18    19    2
     3    19    16    1
     4    16     1    1
     5     1     2    1
     6     2     3   ar
     7     3     4   ar
     8     4     5   ar
     9     5     6   ar
    10     6     8    1
    11     8     9    1
    12     9    10    1
    13    10    11    1
    14    11    12    1
    15    12    13    1
    16    13    14    1
    17    14    15    1
    18     6     7   ar
    19    19    20    1
    20    20    21    2
    21    21    22    1
    22    22    23    1
    23    23    24    2
    24    24    25    1
    25    25    26    2
    26    26    27    1
    27    27    28    2
    28    27    18    1
    29     7     2   ar
    30    26    21    1
    31    15    10    1
@<TRIPOS>MOLECULE
*****
 28 31 0 0 0
SMALL
GASTEIGER

@<TRIPOS>ATOM
      1 O          -6.6061  -20.3632   21.2784 O.3     1  UNL1       -0.4688
      2 C          -5.4060  -19.4699   21.3864 C.ar    1  UNL1        0.1453
      3 C          -4.3046  -19.5677   20.3728 C.ar    1  UNL1        0.0578
      4 C          -3.1044  -18.6743   20.4808 C.ar    1  UNL1        0.1052
      5 N          -3.0057  -17.6833   21.6025 N.ar    1  UNL1       -0.2100
      6 C          -4.1071  -17.5855   22.6161 C.ar    1  UNL1        0.2280
      7 C          -5.3072  -18.4789   22.5080 C.ar    1  UNL1        0.0946
      8 O          -4.0084  -16.5945   23.7377 O.3     1  UNL1       -0.4602
      9 C          -4.9638  -15.4400   23.8047 C.3     1  UNL1        0.2072
     10 C          -6.0734  -15.4423   24.8140 C.3     1  UNL1        0.0488
     11 C          -7.5017  -15.4907   24.3582 C.3     1  UNL1        0.0359
     12 C          -8.6113  -15.4930   25.3675 C.3     1  UNL1        0.1423
     13 O          -8.2927  -15.4471   26.8325 O.3     1  UNL1       -0.3538
     14 C          -6.8644  -15.3988   27.2883 C.3     1  UNL1        0.1423
     15 C          -5.7548  -15.3964   26.2791 C.3     1  UNL1        0.0359
     16 C          -7.6009  -20.4217   22.3995 C.3     1  UNL1        0.2506
     17 C          -9.6002  -20.5537   24.6323 C.3     1  UNL1        0.0358
     18 C          -9.8470  -19.6553   23.4567 C.2     1  UNL1        0.0342
     19 C          -8.8474  -19.5893   22.3403 C.2     1  UNL1        0.1013
     20 N          -9.0942  -18.6909   21.1647 N.2     1  UNL1       -0.2501
     21 C         -10.3407  -17.8585   21.1055 C.2     1  UNL1        0.0661
     22 C         -10.5874  -16.9601   19.9300 C.3     1  UNL1        0.0718
     23 C         -11.8339  -16.1278   19.8708 C.2     1  UNL1       -0.0198
     24 C         -12.8335  -16.1938   20.9872 C.2     1  UNL1       -0.0040
     25 C         -12.5868  -17.0922   22.1627 C.2     1  UNL1        0.0040
     26 C         -11.3403  -17.9245   22.2219 C.2     1  UNL1        0.0525
     27 C         -11.0935  -18.8230   23.3975 C.2     1  UNL1        0.1940
     28 O         -12.0931  -18.8890   24.5139 O.2     1  UNL1       -0.2868
@<TRIPOS>BOND
     1    17    18    1
     2    18    19    2
     3    19    16    1
     4    16     1    1
     5     1     2    1
     6     2     3   ar
     7     3     4   ar
     8     4     5   ar
     9     5     6   ar
    10     6     8    1
    11     8     9    1
    12     9    10    1
    13    10    11    1
    14    11    12    1
    15    12    13    1
    16    13    14    1
    17    14    15    1
    18     6     7   ar
    19    19    20    1
    20    20    21    2
    21    21    22    1
    22    22    23    1
    23    23    24    2
    24    24    25    1
    25    25    26    2
    26    26    27    1
    27    27    28    2
    28    27    18    1
    29     7     2   ar
    30    26    21    1
    31    15    10    1
@<TRIPOS>MOLECULE
*****
 28 31 0 0 0
SMALL
GASTEIGER

@<TRIPOS>ATOM
      1 O          -9.5527  -15.7834   24.6105 O.3     1  UNL1       -0.4688
      2 C          -8.1270  -15.6955   25.0682 C.ar    1  UNL1        0.1453
      3 C          -7.8178  -15.4310   26.5119 C.ar    1  UNL1        0.0578
      4 C          -6.3920  -15.3430   26.9697 C.ar    1  UNL1        0.1052
      5 N          -5.2755  -15.5196   25.9837 N.ar    1  UNL1       -0.2100
      6 C          -5.5848  -15.7842   24.5399 C.ar    1  UNL1        0.2280
      7 C          -7.0105  -15.8721   24.0822 C.ar    1  UNL1        0.0946
      8 O          -4.4683  -15.9608   23.5539 O.3     1  UNL1       -0.4602
      9 C          -3.8241  -17.3047   23.3830 C.3     1  UNL1        0.2072
     10 C          -2.9067  -17.5546   22.2230 C.3     1  UNL1        0.0488
     11 C          -2.8341  -18.9192   21.6045 C.3     1  UNL1        0.0359
     12 C          -1.9167  -19.1691   20.4444 C.3     1  UNL1        0.1423
     13 O          -1.0718  -18.0544   19.9028 O.3     1  UNL1       -0.3538
     14 C          -1.1442  -16.6897   20.5212 C.3     1  UNL1        0.1423
     15 C          -2.0617  -16.4398   21.6813 C.3     1  UNL1        0.0359
     16 C         -10.1442  -17.1141   24.2507 C.3     1  UNL1        0.2506
     17 C         -11.8277  -17.1152   21.7676 C.3     1  UNL1        0.0358
     18 C         -10.5137  -17.8386   21.7832 C.2     1  UNL1        0.0342
     19 C          -9.6719  -17.8380   23.0247 C.2     1  UNL1        0.1013
     20 N          -8.3580  -18.5612   23.0403 N.2     1  UNL1       -0.2501
     21 C          -7.8857  -19.2851   21.8143 C.2     1  UNL1        0.0661
     22 C          -6.5717  -20.0084   21.8299 C.3     1  UNL1        0.0718
     23 C          -6.0995  -20.7323   20.6040 C.2     1  UNL1       -0.0198
     24 C          -6.9412  -20.7328   19.3624 C.2     1  UNL1       -0.0040
     25 C          -8.2552  -20.0096   19.3468 C.2     1  UNL1        0.0040
     26 C          -8.7274  -19.2857   20.5728 C.2     1  UNL1        0.0525
     27 C         -10.0415  -18.5624   20.5572 C.2     1  UNL1        0.1940
     28 O         -10.8832  -18.5630   19.3157 O.2     1  UNL1       -0.2868
@<TRIPOS>BOND
     1    17    18    1
     2    18    19    2
     3    19    16    1
     4    16     1    1
     5     1     2    1
     6     2     3   ar
     7     3     4   ar
     8     4     5   ar
     9     5     6   ar
    10     6     8    1
    11     8     9    1
    12     9    10    1
    13    10    11    1
    14    11    12    1
    15    12    13    1
    16    13    14    1
    17    14    15    1
    18     6     7   ar
    19    19    20    1
    20    20    21    2
    21    21    22    1
    22    22    23    1
    23    23    24    2
    24    24    25    1
    25    25    26    2
    26    26    27    1
    27    27    28    2
    28    27    18    1
    29     7     2   ar
    30    26    21    1
    31    15    10    1
@<TRIPOS>MOLECULE
*****
 28 31 0 0 0
SMALL
GASTEIGER

@<TRIPOS>ATOM
      1 O          -8.3394  -18.9510   19.4179 O.3     1  UNL1       -0.4688
      2 C          -9.4250  -18.6338   20.4032 C.ar    1  UNL1        0.1453
      3 C         -10.7517  -19.3268   20.3063 C.ar    1  UNL1        0.0578
      4 C         -11.8373  -19.0096   21.2916 C.ar    1  UNL1        0.1052
      5 N         -11.5962  -17.9993   22.3738 N.ar    1  UNL1       -0.2100
      6 C         -10.2694  -17.3062   22.4707 C.ar    1  UNL1        0.2280
      7 C          -9.1838  -17.6235   21.4854 C.ar    1  UNL1        0.0946
      8 O         -10.0282  -16.2960   23.5529 O.3     1  UNL1       -0.4602
      9 C          -9.2295  -16.6721   24.7657 C.3     1  UNL1        0.2072
     10 C          -7.8641  -16.0877   24.9754 C.3     1  UNL1        0.0488
     11 C          -6.9279  -15.9331   23.8136 C.3     1  UNL1        0.0359
     12 C          -5.5625  -15.3487   24.0234 C.3     1  UNL1        0.1423
     13 O          -5.1332  -14.9188   25.3948 O.3     1  UNL1       -0.3538
     14 C          -6.0694  -15.0734   26.5566 C.3     1  UNL1        0.1423
     15 C          -7.4348  -15.6578   26.3469 C.3     1  UNL1        0.0359
     16 C          -7.2610  -19.9290   19.7792 C.3     1  UNL1        0.2506
     17 C          -6.7486  -19.5662   22.7127 C.3     1  UNL1        0.0358
     18 C          -5.6702  -19.2517   21.7185 C.2     1  UNL1        0.0342
     19 C          -5.9264  -19.4331   20.2517 C.2     1  UNL1        0.1013
     20 N          -4.8482  -19.1187   19.2575 N.2     1  UNL1       -0.2501
     21 C          -3.5137  -18.6228   19.7301 C.2     1  UNL1        0.0661
     22 C          -2.4354  -18.3083   18.7359 C.3     1  UNL1        0.0718
     23 C          -1.1010  -17.8125   19.2085 C.2     1  UNL1       -0.0198
     24 C          -0.8448  -17.6311   20.6753 C.2     1  UNL1       -0.0040
     25 C          -1.9231  -17.9456   21.6695 C.2     1  UNL1        0.0040
     26 C          -3.2575  -18.4414   21.1969 C.2     1  UNL1        0.0525
     27 C          -4.3358  -18.7559   22.1911 C.2     1  UNL1        0.1940
     28 O          -4.0796  -18.5745   23.6579 O.2     1  UNL1       -0.2868
@<TRIPOS>BOND
     1    17    18    1
     2    18    19    2
     3    19    16    1
     4    16     1    1
     5     1     2    1
     6     2     3   ar
     7     3     4   ar
     8     4     5   ar
     9     5     6   ar
    10     6     8    1
    11     8     9    1
    12     9    10    1
    13    10    11    1
    14    11    12    1
    15    12    13    1
    16    13    14    1
    17    14    15    1
    18     6     7   ar
    19    19    20    1
    20    20    21    2
    21    21    22    1
    22    22    23    1
    23    23    24    2
    24    24    25    1
    25    25    26    2
    26    26    27    1
    27    27    28    2
    28    27    18    1
    29     7     2   ar
    30    26    21    1
    31    15    10    1
@<TRIPOS>MOLECULE
*****
 28 31 0 0 0
SMALL
GASTEIGER

@<TRIPOS>ATOM
      1 O          -5.1892  -15.0068   23.8256 O.3     1  UNL1       -0.4688
      2 C          -6.2805  -15.3948   24.7787 C.ar    1  UNL1        0.1453
      3 C          -6.1336  -15.1086   26.2438 C.ar    1  UNL1        0.0578
      4 C          -7.2250  -15.4966   27.1969 C.ar    1  UNL1        0.1052
      5 N          -8.4632  -16.1709   26.6849 N.ar    1  UNL1       -0.2100
      6 C          -8.6101  -16.4571   25.2198 C.ar    1  UNL1        0.2280
      7 C          -7.5188  -16.0691   24.2667 C.ar    1  UNL1        0.0946
      8 O          -9.8484  -17.1313   24.7078 O.3     1  UNL1       -0.4602
      9 C          -9.7579  -18.0970   23.5635 C.3     1  UNL1        0.2072
     10 C         -10.4447  -17.7888   22.2660 C.3     1  UNL1        0.0488
     11 C         -10.1680  -18.6271   21.0533 C.3     1  UNL1        0.0359
     12 C         -10.8548  -18.3189   19.7559 C.3     1  UNL1        0.1423
     13 O         -11.8183  -17.1724   19.6712 O.3     1  UNL1       -0.3538
     14 C         -12.0950  -16.3340   20.8839 C.3     1  UNL1        0.1423
     15 C         -11.4083  -16.6422   22.1813 C.3     1  UNL1        0.0359
     16 C          -3.9688  -15.8686   23.6919 C.3     1  UNL1        0.2506
     17 C          -1.6907  -16.1628   21.7622 C.3     1  UNL1        0.0358
     18 C          -2.8179  -17.1524   21.7484 C.2     1  UNL1        0.0342
     19 C          -3.9569  -17.0053   22.7132 C.2     1  UNL1        0.1013
     20 N          -5.0840  -17.9949   22.6995 N.2     1  UNL1       -0.2501
     21 C          -5.0722  -19.1317   21.7208 C.2     1  UNL1        0.0661
     22 C          -6.1993  -20.1213   21.7071 C.3     1  UNL1        0.0718
     23 C          -6.1874  -21.2580   20.7285 C.2     1  UNL1       -0.0198
     24 C          -5.0484  -21.4051   19.7636 C.2     1  UNL1       -0.0040
     25 C          -3.9212  -20.4155   19.7774 C.2     1  UNL1        0.0040
     26 C          -3.9331  -19.2788   20.7560 C.2     1  UNL1        0.0525
     27 C          -2.8060  -18.2891   20.7698 C.2     1  UNL1        0.1940
     28 O          -1.6669  -18.4363   19.8049 O.2     1  UNL1       -0.2868
@<TRIPOS>BOND
     1    17    18    1
     2    18    19    2
     3    19    16    1
     4    16     1    1
     5     1     2    1
     6     2     3   ar
     7     3     4   ar
     8     4     5   ar
     9     5     6   ar
    10     6     8    1
    11     8     9    1
    12     9    10    1
    13    10    11    1
    14    11    12    1
    15    12    13    1
    16    13    14    1
    17    14    15    1
    18     6     7   ar
    19    19    20    1
    20    20    21    2
    21    21    22    1
    22    22    23    1
    23    23    24    2
    24    24    25    1
    25    25    26    2
    26    26    27    1
    27    27    28    2
    28    27    18    1
    29     7     2   ar
    30    26    21    1
    31    15    10    1
@<TRIPOS>MOLECULE
*****
 28 31 0 0 0
SMALL
GASTEIGER

@<TRIPOS>ATOM
      1 O          -6.0934  -14.9349   24.2497 O.3     1  UNL1       -0.4688
      2 C          -5.0696  -15.7804   23.5520 C.ar    1  UNL1        0.1453
      3 C          -3.8760  -15.1365   22.9110 C.ar    1  UNL1        0.0578
      4 C          -2.8521  -15.9820   22.2132 C.ar    1  UNL1        0.1052
      5 N          -3.0219  -17.4713   22.1564 N.ar    1  UNL1       -0.2100
      6 C          -4.2155  -18.1151   22.7973 C.ar    1  UNL1        0.2280
      7 C          -5.2393  -17.2696   23.4951 C.ar    1  UNL1        0.0946
      8 O          -4.3852  -19.6044   22.7405 O.3     1  UNL1       -0.4602
      9 C          -5.0158  -20.2420   21.5380 C.3     1  UNL1        0.2072
     10 C          -6.4641  -19.9987   21.2329 C.3     1  UNL1        0.0488
     11 C          -7.4822  -20.0557   22.3330 C.3     1  UNL1        0.0359
     12 C          -8.9306  -19.8124   22.0279 C.3     1  UNL1        0.1423
     13 O          -9.3608  -19.5121   20.6227 O.3     1  UNL1       -0.3538
     14 C          -8.3428  -19.4551   19.5225 C.3     1  UNL1        0.1423
     15 C          -6.8944  -19.6984   19.8276 C.3     1  UNL1        0.0359
     16 C          -7.1975  -15.5850   25.0297 C.3     1  UNL1        0.2506
     17 C          -8.9788  -17.5773   26.3927 C.3     1  UNL1        0.0358
     18 C          -9.2927  -17.1211   24.9986 C.2     1  UNL1        0.0342
     19 C          -8.4020  -16.1249   24.3171 C.2     1  UNL1        0.1013
     20 N          -8.7157  -15.6687   22.9231 N.2     1  UNL1       -0.2501
     21 C          -9.9202  -16.2087   22.2104 C.2     1  UNL1        0.0661
     22 C         -10.2340  -15.7524   20.8164 C.3     1  UNL1        0.0718
     23 C         -11.4384  -16.2924   20.1038 C.2     1  UNL1       -0.0198
     24 C         -12.3291  -17.2885   20.7853 C.2     1  UNL1       -0.0040
     25 C         -12.0153  -17.7447   22.1794 C.2     1  UNL1        0.0040
     26 C         -10.8109  -17.2048   22.8919 C.2     1  UNL1        0.0525
     27 C         -10.4971  -17.6610   24.2860 C.2     1  UNL1        0.1940
     28 O         -11.3878  -18.6571   24.9675 O.2     1  UNL1       -0.2868
@<TRIPOS>BOND
     1    17    18    1
     2    18    19    2
     3    19    16    1
     4    16     1    1
     5     1     2    1
     6     2     3   ar
     7     3     4   ar
     8     4     5   ar
     9     5     6   ar
    10     6     8    1
    11     8     9    1
    12     9    10    1
    13    10    11    1
    14    11    12    1
    15    12    13    1
    16    13    14    1
    17    14    15    1
    18     6     7   ar
    19    19    20    1
    20    20    21    2
    21    21    22    1
    22    22    23    1
    23    23    24    2
    24    24    25    1
    25    25    26    2
    26    26    27    1
    27    27    28    2
    28    27    18    1
    29     7     2   ar
    30    26    21    1
    31    15    10    1
@<TRIPOS>MOLECULE
*****
 28 31 0 0 0
SMALL
GASTEIGER

@<TRIPOS>ATOM
      1 O          -9.0020  -17.1322   25.7948 O.3     1  UNL1       -0.4688
      2 C          -8.0363  -16.4449   24.8757 C.ar    1  UNL1        0.1453
      3 C          -8.5327  -15.4302   23.8889 C.ar    1  UNL1        0.0578
      4 C          -7.5669  -14.7428   22.9697 C.ar    1  UNL1        0.1052
      5 N          -6.1047  -15.0702   23.0374 N.ar    1  UNL1       -0.2100
      6 C          -5.6082  -16.0850   24.0243 C.ar    1  UNL1        0.2280
      7 C          -6.5740  -16.7723   24.9434 C.ar    1  UNL1        0.0946
      8 O          -4.1459  -16.4124   24.0920 O.3     1  UNL1       -0.4602
      9 C          -3.6538  -17.7482   23.6193 C.3     1  UNL1        0.2072
     10 C          -3.2766  -17.9423   22.1805 C.3     1  UNL1        0.0488
     11 C          -2.1861  -17.1111   21.5724 C.3     1  UNL1        0.0359
     12 C          -1.8088  -17.3052   20.1336 C.3     1  UNL1        0.1423
     13 O          -2.5221  -18.3304   19.3030 O.3     1  UNL1       -0.3538
     14 C          -3.6127  -19.1617   19.9111 C.3     1  UNL1        0.1423
     15 C          -3.9899  -18.9676   21.3498 C.3     1  UNL1        0.0359
     16 C          -9.8295  -18.2781   25.2924 C.3     1  UNL1        0.2506
     17 C         -12.4079  -17.8457   23.8211 C.3     1  UNL1        0.0358
     18 C         -11.1983  -18.3410   23.0851 C.2     1  UNL1        0.0342
     19 C          -9.9091  -18.5572   23.8207 C.2     1  UNL1        0.1013
     20 N          -8.6996  -19.0524   23.0848 N.2     1  UNL1       -0.2501
     21 C          -8.7792  -19.3315   21.6131 C.2     1  UNL1        0.0661
     22 C          -7.5697  -19.8268   20.8771 C.3     1  UNL1        0.0718
     23 C          -7.6494  -20.1058   19.4055 C.2     1  UNL1       -0.0198
     24 C          -8.9386  -19.8897   18.6698 C.2     1  UNL1       -0.0040
     25 C         -10.1481  -19.3944   19.4058 C.2     1  UNL1        0.0040
     26 C         -10.0684  -19.1153   20.8774 C.2     1  UNL1        0.0525
     27 C         -11.2780  -18.6200   21.6135 C.2     1  UNL1        0.1940
     28 O         -12.5672  -18.4039   20.8778 O.2     1  UNL1       -0.2868
@<TRIPOS>BOND
     1    17    18    1
     2    18    19    2
     3    19    16    1
     4    16     1    1
     5     1     2    1
     6     2     3   ar
     7     3     4   ar
     8     4     5   ar
     9     5     6   ar
    10     6     8    1
    11     8     9    1
    12     9    10    1
    13    10    11    1
    14    11    12    1
    15    12    13    1
    16    13    14    1
    17    14    15    1
    18     6     7   ar
    19    19    20    1
    20    20    21    2
    21    21    22    1
    22    22    23    1
    23    23    24    2
    24    24    25    1
    25    25    26    2
    26    26    27    1
    27    27    28    2
    28    27    18    1
    29     7     2   ar
    30    26    21    1
    31    15    10    1
@<TRIPOS>MOLECULE
*****
 28 31 0 0 0
SMALL
GASTEIGER

@<TRIPOS>ATOM
      1 O           7.4807   -5.2046   24.7066 O.3     1  UNL1       -0.4688
      2 C           7.7643   -6.1152   25.8643 C.ar    1  UNL1        0.1453
      3 C           7.8723   -7.5952   25.6455 C.ar    1  UNL1        0.0578
      4 C           8.1559   -8.5058   26.8033 C.ar    1  UNL1        0.1052
      5 N           8.3314   -7.9364   28.1798 N.ar    1  UNL1       -0.2100
      6 C           8.2234   -6.4564   28.3987 C.ar    1  UNL1        0.2280
      7 C           7.9398   -5.5458   27.2409 C.ar    1  UNL1        0.0946
      8 O           8.3989   -5.8870   29.7752 O.3     1  UNL1       -0.4602
      9 C           7.2000   -5.6338   30.6406 C.3     1  UNL1        0.2072
     10 C           6.7472   -4.2278   30.9019 C.3     1  UNL1        0.0488
     11 C           6.6308   -3.2542   29.7668 C.3     1  UNL1        0.0359
     12 C           6.1779   -1.8482   30.0281 C.3     1  UNL1        0.1423
     13 O           5.8415   -1.4160   31.4245 O.3     1  UNL1       -0.3538
     14 C           5.9578   -2.3896   32.5597 C.3     1  UNL1        0.1423
     15 C           6.4107   -3.7956   32.2984 C.3     1  UNL1        0.0359
     16 C           6.5280   -4.0576   24.8704 C.3     1  UNL1        0.2506
     17 C           4.5379   -1.8403   25.2204 C.3     1  UNL1        0.0358
     18 C           4.7603   -2.4413   23.8641 C.2     1  UNL1        0.0342
     19 C           5.7553   -3.5499   23.6891 C.2     1  UNL1        0.1013
     20 N           5.9778   -4.1509   22.3329 N.2     1  UNL1       -0.2501
     21 C           5.2050   -3.6433   21.1517 C.2     1  UNL1        0.0661
     22 C           5.4275   -4.2443   19.7955 C.3     1  UNL1        0.0718
     23 C           4.6548   -3.7366   18.6143 C.2     1  UNL1       -0.0198
     24 C           3.6597   -2.6279   18.7893 C.2     1  UNL1       -0.0040
     25 C           3.4373   -2.0269   20.1455 C.2     1  UNL1        0.0040
     26 C           4.2100   -2.5346   21.3267 C.2     1  UNL1        0.0525
     27 C           3.9876   -1.9336   22.6830 C.2     1  UNL1        0.1940
     28 O           2.9925   -0.8249   22.8580 O.2     1  UNL1       -0.2868
@<TRIPOS>BOND
     1    17    18    1
     2    18    19    2
     3    19    16    1
     4    16     1    1
     5     1     2    1
     6     2     3   ar
     7     3     4   ar
     8     4     5   ar
     9     5     6   ar
    10     6     8    1
    11     8     9    1
    12     9    10    1
    13    10    11    1
    14    11    12    1
    15    12    13    1
    16    13    14    1
    17    14    15    1
    18     6     7   ar
    19    19    20    1
    20    20    21    2
    21    21    22    1
    22    22    23    1
    23    23    24    2
    24    24    25    1
    25    25    26    2
    26    26    27    1
    27    27    28    2
    28    27    18    1
    29     7     2   ar
    30    26    21    1
    31    15    10    1
@<TRIPOS>MOLECULE
*****
 28 31 0 0 0
SMALL
GASTEIGER

@<TRIPOS>ATOM
      1 O          -8.9319  -17.7974   26.1160 O.3     1  UNL1       -0.4688
      2 C          -8.1566  -16.7544   25.3670 C.ar    1  UNL1        0.1453
      3 C          -8.7146  -15.3705   25.2146 C.ar    1  UNL1        0.0578
      4 C          -7.9392  -14.3274   24.4656 C.ar    1  UNL1        0.1052
      5 N          -6.6058  -14.6684   23.8691 N.ar    1  UNL1       -0.2100
      6 C          -6.0478  -16.0524   24.0216 C.ar    1  UNL1        0.2280
      7 C          -6.8232  -17.0954   24.7705 C.ar    1  UNL1        0.0946
      8 O          -4.7144  -16.3934   23.4251 O.3     1  UNL1       -0.4602
      9 C          -4.1453  -17.7704   23.5984 C.3     1  UNL1        0.2072
     10 C          -4.1143  -18.7205   22.4381 C.3     1  UNL1        0.0488
     11 C          -2.8023  -19.1201   21.8307 C.3     1  UNL1        0.0359
     12 C          -2.7713  -20.0702   20.6704 C.3     1  UNL1        0.1423
     13 O          -4.0523  -20.6208   20.1175 O.3     1  UNL1       -0.3538
     14 C          -5.3644  -20.2213   20.7248 C.3     1  UNL1        0.1423
     15 C          -5.3954  -19.2712   21.8851 C.3     1  UNL1        0.0359
     16 C          -9.8699  -18.7074   25.3797 C.3     1  UNL1        0.2506
     17 C          -8.5392  -20.4042   23.2940 C.3     1  UNL1        0.0358
     18 C          -9.4915  -19.3203   22.8835 C.2     1  UNL1        0.0342
     19 C         -10.1569  -18.4720   23.9263 C.2     1  UNL1        0.1013
     20 N         -11.1092  -17.3882   23.5158 N.2     1  UNL1       -0.2501
     21 C         -11.3962  -17.1528   22.0624 C.2     1  UNL1        0.0661
     22 C         -12.3485  -16.0690   21.6520 C.3     1  UNL1        0.0718
     23 C         -12.6354  -15.8336   20.1986 C.2     1  UNL1       -0.0198
     24 C         -11.9700  -16.6820   19.1558 C.2     1  UNL1       -0.0040
     25 C         -11.0177  -17.7658   19.5662 C.2     1  UNL1        0.0040
     26 C         -10.7308  -18.0011   21.0196 C.2     1  UNL1        0.0525
     27 C          -9.7785  -19.0850   21.4301 C.2     1  UNL1        0.1940
     28 O          -9.1131  -19.9333   20.3873 O.2     1  UNL1       -0.2868
@<TRIPOS>BOND
     1    17    18    1
     2    18    19    2
     3    19    16    1
     4    16     1    1
     5     1     2    1
     6     2     3   ar
     7     3     4   ar
     8     4     5   ar
     9     5     6   ar
    10     6     8    1
    11     8     9    1
    12     9    10    1
    13    10    11    1
    14    11    12    1
    15    12    13    1
    16    13    14    1
    17    14    15    1
    18     6     7   ar
    19    19    20    1
    20    20    21    2
    21    21    22    1
    22    22    23    1
    23    23    24    2
    24    24    25    1
    25    25    26    2
    26    26    27    1
    27    27    28    2
    28    27    18    1
    29     7     2   ar
    30    26    21    1
    31    15    10    1
