@<TRIPOS>MOLECULE
*****
 41 45 0 0 0
SMALL
GASTEIGER

@<TRIPOS>ATOM
      1 C           1.6613    1.5326   19.9487 C.ar    1  UNL1        0.0014
      2 C           0.5356    2.0833   19.1243 C.ar    1  UNL1        0.0032
      3 C          -0.4206    3.0707   19.7249 C.ar    1  UNL1        0.0388
      4 C          -0.2511    3.5075   21.1498 C.ar    1  UNL1        0.1586
      5 C           0.8747    2.9568   21.9742 C.ar    1  UNL1        0.0865
      6 C           1.8308    1.9694   21.3736 C.ar    1  UNL1        0.0178
      7 C           4.5298   -1.4296   18.1468 C.ar    1  UNL1        0.1397
      8 C           4.4662   -0.0284   17.6152 C.ar    1  UNL1        0.0369
      9 C           3.5101    0.9590   18.2158 C.ar    1  UNL1        0.0031
     10 C           2.6174    0.5452   19.3481 C.ar    1  UNL1        0.0003
     11 C           2.6810   -0.8560   19.8797 C.ar    1  UNL1        0.0042
     12 C           3.6372   -1.8434   19.2790 C.ar    1  UNL1        0.0479
     13 C           3.7007   -3.2446   19.8107 C.2     1  UNL1        0.0758
     14 O           4.3617   -3.5172   21.1293 O.co2   1  UNL1       -0.5445
     15 O           3.1032   -4.3732   19.0237 O.co2   1  UNL1       -0.5445
     16 C           6.8998   -2.4890   18.0421 C.3     1  UNL1        0.2525
     17 O           5.4859   -2.4170   17.5462 O.3     1  UNL1       -0.4714
     18 N           1.0442    3.3936   23.3991 N.am    1  UNL1       -0.2656
     19 C           0.9376    2.3901   24.5089 C.2     1  UNL1        0.3082
     20 O           0.6614    0.9499   24.1937 O.2     1  UNL1       -0.2521
     21 N           1.1071    2.8269   25.9339 N.am    1  UNL1       -0.2681
     22 H           1.2255    4.3389   23.6060 H       1  UNL1        0.1565
     23 H           1.2884    3.7722   26.1407 H       1  UNL1        0.1564
     24 C           1.0005    1.8235   27.0436 C.ar    1  UNL1        0.0513
     25 C           2.2427    1.2457   27.6543 C.ar    1  UNL1        0.0147
     26 C           2.1361    0.2422   28.7642 C.ar    1  UNL1        0.0010
     27 C           0.7871   -0.1835   29.2633 C.ar    1  UNL1       -0.0042
     28 C          -0.4551    0.3942   28.6526 C.ar    1  UNL1       -0.0206
     29 C          -1.8041   -0.0315   29.1516 C.3     1  UNL1        0.0311
     30 C          -0.3485    1.3977   27.5428 C.ar    1  UNL1        0.0105
     31 O          -1.2072    4.4949   21.7504 O.3     1  UNL1       -0.4526
     32 C          -2.5949    4.0640   22.1228 C.ar    1  UNL1        0.1410
     33 C          -3.5705    3.6709   21.0534 C.ar    1  UNL1        0.0371
     34 C          -4.9582    3.2400   21.4257 C.ar    1  UNL1        0.0028
     35 C          -5.3703    3.2022   22.8675 C.ar    1  UNL1       -0.0044
     36 C          -4.3947    3.5954   23.9370 C.ar    1  UNL1       -0.0232
     37 C          -3.0070    4.0263   23.5646 C.ar    1  UNL1        0.0084
     38 C          -2.0315    4.4194   24.6340 C.3     1  UNL1        0.0291
     39 C          -2.4436    4.3817   26.0758 C.3     1  UNL1        0.0051
     40 C          -3.8313    3.9508   26.4481 C.3     1  UNL1        0.0050
     41 C          -4.8068    3.5576   25.3787 C.3     1  UNL1        0.0261
@<TRIPOS>UNITY_ATOM_ATTR
14 1
charge -1
@<TRIPOS>BOND
     1    16    17    1
     2    17     7    1
     3     7     8   ar
     4     8     9   ar
     5     9    10   ar
     6    10     1    1
     7     1     2   ar
     8     2     3   ar
     9     3     4   ar
    10     4    31    1
    11    31    32    1
    12    32    33   ar
    13    33    34   ar
    14    34    35   ar
    15    35    36   ar
    16    36    37   ar
    17    37    38    1
    18    38    39    1
    19    39    40    1
    20    40    41    1
    21     4     5   ar
    22     5    18    1
    23    18    19   am
    24    19    20    2
    25    19    21   am
    26    21    24    1
    27    24    25   ar
    28    25    26   ar
    29    26    27   ar
    30    27    28   ar
    31    28    29    1
    32    28    30   ar
    33     5     6   ar
    34    10    11   ar
    35    11    12   ar
    36    12    13    1
    37    13    14   ar
    38    13    15   ar
    39    12     7   ar
    40     6     1   ar
    41    37    32   ar
    42    30    24   ar
    43    41    36    1
    44    18    22    1
    45    21    23    1
@<TRIPOS>MOLECULE
*****
 41 45 0 0 0
SMALL
GASTEIGER

@<TRIPOS>ATOM
      1 C           5.5931    0.4244   34.7182 C.ar    1  UNL1        0.0014
      2 C           6.9881    0.3396   34.1735 C.ar    1  UNL1        0.0032
      3 C           7.2299   -0.2618   32.8207 C.ar    1  UNL1        0.0388
      4 C           6.0765   -0.7784   32.0127 C.ar    1  UNL1        0.1586
      5 C           4.6815   -0.6936   32.5574 C.ar    1  UNL1        0.0865
      6 C           4.4398   -0.0922   33.9101 C.ar    1  UNL1        0.0178
      7 C           4.8682    2.2287   38.7764 C.ar    1  UNL1        0.1397
      8 C           6.2346    2.2918   38.1607 C.ar    1  UNL1        0.0369
      9 C           6.4762    1.6904   36.8080 C.ar    1  UNL1        0.0031
     10 C           5.3515    1.0258   36.0709 C.ar    1  UNL1        0.0003
     11 C           3.9851    0.9627   36.6865 C.ar    1  UNL1        0.0042
     12 C           3.7435    1.5641   38.0393 C.ar    1  UNL1        0.0479
     13 C           2.3771    1.5009   38.6549 C.2     1  UNL1        0.0758
     14 O           1.2911    2.4126   38.1656 O.co2   1  UNL1       -0.5445
     15 O           2.0967    0.5261   39.7600 O.co2   1  UNL1       -0.5445
     16 C           4.3369    4.2963   40.2571 C.3     1  UNL1        0.2525
     17 O           4.6265    2.8301   40.1291 O.3     1  UNL1       -0.4714
     18 N           3.5281   -1.2103   31.7494 N.am    1  UNL1       -0.2656
     19 C           2.9037   -0.3450   30.6952 C.2     1  UNL1        0.3082
     20 O           3.4327    1.0368   30.4489 O.2     1  UNL1       -0.2521
     21 N           1.7504   -0.8617   29.8871 N.am    1  UNL1       -0.2681
     22 H           3.1810   -2.1172   31.9110 H       1  UNL1        0.1565
     23 H           1.4032   -1.7686   30.0488 H       1  UNL1        0.1564
     24 C           1.1260    0.0035   28.8329 C.ar    1  UNL1        0.0513
     25 C          -0.3005    0.4457   28.9735 C.ar    1  UNL1        0.0147
     26 C          -0.9249    1.3109   27.9191 C.ar    1  UNL1        0.0010
     27 C          -0.1228    1.7340   26.7243 C.ar    1  UNL1       -0.0042
     28 C           1.3036    1.2919   26.5837 C.ar    1  UNL1       -0.0206
     29 C           2.1057    1.7150   25.3889 C.3     1  UNL1        0.0311
     30 C           1.9280    0.4267   27.6380 C.ar    1  UNL1        0.0105
     31 O           6.3182   -1.3798   30.6600 O.3     1  UNL1       -0.4526
     32 C           6.5473   -2.8561   30.5256 C.ar    1  UNL1        0.1410
     33 C           6.6959   -3.7067   31.7521 C.ar    1  UNL1        0.0371
     34 C           6.9249   -5.1831   31.6177 C.ar    1  UNL1        0.0028
     35 C           7.0054   -5.8087   30.2568 C.ar    1  UNL1       -0.0044
     36 C           6.8568   -4.9581   29.0302 C.ar    1  UNL1       -0.0232
     37 C           6.6277   -3.4818   29.1646 C.ar    1  UNL1        0.0084
     38 C           6.4791   -2.6312   27.9381 C.3     1  UNL1        0.0291
     39 C           6.5596   -3.2568   26.5773 C.3     1  UNL1        0.0051
     40 C           6.7886   -4.7331   26.4429 C.3     1  UNL1        0.0050
     41 C           6.9373   -5.5838   27.6694 C.3     1  UNL1        0.0261
@<TRIPOS>UNITY_ATOM_ATTR
14 1
charge -1
@<TRIPOS>BOND
     1    16    17    1
     2    17     7    1
     3     7     8   ar
     4     8     9   ar
     5     9    10   ar
     6    10     1    1
     7     1     2   ar
     8     2     3   ar
     9     3     4   ar
    10     4    31    1
    11    31    32    1
    12    32    33   ar
    13    33    34   ar
    14    34    35   ar
    15    35    36   ar
    16    36    37   ar
    17    37    38    1
    18    38    39    1
    19    39    40    1
    20    40    41    1
    21     4     5   ar
    22     5    18    1
    23    18    19   am
    24    19    20    2
    25    19    21   am
    26    21    24    1
    27    24    25   ar
    28    25    26   ar
    29    26    27   ar
    30    27    28   ar
    31    28    29    1
    32    28    30   ar
    33     5     6   ar
    34    10    11   ar
    35    11    12   ar
    36    12    13    1
    37    13    14   ar
    38    13    15   ar
    39    12     7   ar
    40     6     1   ar
    41    37    32   ar
    42    30    24   ar
    43    41    36    1
    44    18    22    1
    45    21    23    1
@<TRIPOS>MOLECULE
*****
 41 45 0 0 0
SMALL
GASTEIGER

@<TRIPOS>ATOM
      1 C           1.6513    0.9162   20.8212 C.ar    1  UNL1        0.0014
      2 C           0.4921    1.3111   19.9549 C.ar    1  UNL1        0.0032
      3 C          -0.4265    2.4148   20.3885 C.ar    1  UNL1        0.0388
      4 C          -0.1860    3.1236   21.6884 C.ar    1  UNL1        0.1586
      5 C           0.9732    2.7287   22.5547 C.ar    1  UNL1        0.0865
      6 C           1.8918    1.6250   22.1211 C.ar    1  UNL1        0.0178
      7 C           4.4071   -2.3948   19.5203 C.ar    1  UNL1        0.1397
      8 C           3.7398   -2.4581   20.8623 C.ar    1  UNL1        0.0369
      9 C           2.8213   -1.3545   21.2959 C.ar    1  UNL1        0.0031
     10 C           2.5698   -0.1874   20.3876 C.ar    1  UNL1        0.0003
     11 C           3.2371   -0.1242   19.0456 C.ar    1  UNL1        0.0042
     12 C           4.1557   -1.2279   18.6120 C.ar    1  UNL1        0.0479
     13 C           4.8230   -1.1647   17.2701 C.2     1  UNL1        0.0758
     14 O           3.9932   -1.0978   16.0223 O.co2   1  UNL1       -0.5445
     15 O           6.3201   -1.1683   17.1760 O.co2   1  UNL1       -0.5445
     16 C           4.7861   -4.8809   18.8677 C.3     1  UNL1        0.2525
     17 O           5.3257   -3.4985   19.0867 O.3     1  UNL1       -0.4714
     18 N           1.2137    3.4375   23.8546 N.am    1  UNL1       -0.2656
     19 C           0.8891    2.7568   25.1513 C.2     1  UNL1        0.3082
     20 O           0.3240    1.3674   25.1480 O.2     1  UNL1       -0.2521
     21 N           1.1296    3.4656   26.4512 N.am    1  UNL1       -0.2681
     22 H           1.5846    4.3494   23.8568 H       1  UNL1        0.1565
     23 H           1.5005    4.3776   26.4533 H       1  UNL1        0.1564
     24 C           0.8050    2.7850   27.7478 C.ar    1  UNL1        0.0513
     25 C           1.5390    3.1661   28.9992 C.ar    1  UNL1        0.0147
     26 C           1.2143    2.4854   30.2959 C.ar    1  UNL1        0.0010
     27 C           0.1558    1.4236   30.3412 C.ar    1  UNL1       -0.0042
     28 C          -0.5782    1.0425   29.0897 C.ar    1  UNL1       -0.0206
     29 C          -1.6367   -0.0192   29.1349 C.3     1  UNL1        0.0311
     30 C          -0.2536    1.7232   27.7931 C.ar    1  UNL1        0.0105
     31 O          -1.1046    4.2272   22.1221 O.3     1  UNL1       -0.4526
     32 C          -2.5517    3.9369   22.3897 C.ar    1  UNL1        0.1410
     33 C          -3.4764    3.6216   21.2516 C.ar    1  UNL1        0.0371
     34 C          -4.9235    3.3313   21.5192 C.ar    1  UNL1        0.0028
     35 C          -5.4459    3.3564   22.9251 C.ar    1  UNL1       -0.0044
     36 C          -4.5212    3.6718   24.0633 C.ar    1  UNL1       -0.0232
     37 C          -3.0741    3.9621   23.7957 C.ar    1  UNL1        0.0084
     38 C          -2.1494    4.2774   24.9338 C.3     1  UNL1        0.0291
     39 C          -2.6718    4.3025   26.3396 C.3     1  UNL1        0.0051
     40 C          -4.1189    4.0123   26.6073 C.3     1  UNL1        0.0050
     41 C          -5.0436    3.6969   25.4692 C.3     1  UNL1        0.0261
@<TRIPOS>UNITY_ATOM_ATTR
14 1
charge -1
@<TRIPOS>BOND
     1    16    17    1
     2    17     7    1
     3     7     8   ar
     4     8     9   ar
     5     9    10   ar
     6    10     1    1
     7     1     2   ar
     8     2     3   ar
     9     3     4   ar
    10     4    31    1
    11    31    32    1
    12    32    33   ar
    13    33    34   ar
    14    34    35   ar
    15    35    36   ar
    16    36    37   ar
    17    37    38    1
    18    38    39    1
    19    39    40    1
    20    40    41    1
    21     4     5   ar
    22     5    18    1
    23    18    19   am
    24    19    20    2
    25    19    21   am
    26    21    24    1
    27    24    25   ar
    28    25    26   ar
    29    26    27   ar
    30    27    28   ar
    31    28    29    1
    32    28    30   ar
    33     5     6   ar
    34    10    11   ar
    35    11    12   ar
    36    12    13    1
    37    13    14   ar
    38    13    15   ar
    39    12     7   ar
    40     6     1   ar
    41    37    32   ar
    42    30    24   ar
    43    41    36    1
    44    18    22    1
    45    21    23    1
@<TRIPOS>MOLECULE
*****
 41 45 0 0 0
SMALL
GASTEIGER

@<TRIPOS>ATOM
      1 C           3.1899   -0.1965   23.0919 C.ar    1  UNL1        0.0014
      2 C           1.8601    0.4911   22.9991 C.ar    1  UNL1        0.0032
      3 C           1.4010    1.3893   24.1094 C.ar    1  UNL1        0.0388
      4 C           2.2719    1.5997   25.3124 C.ar    1  UNL1        0.1586
      5 C           3.6018    0.9121   25.4052 C.ar    1  UNL1        0.0865
      6 C           4.0608    0.0140   24.2949 C.ar    1  UNL1        0.0178
      7 C           4.5669   -2.8908   19.7610 C.ar    1  UNL1        0.1397
      8 C           3.2156   -2.2433   19.6919 C.ar    1  UNL1        0.0369
      9 C           2.7566   -1.3453   20.8022 C.ar    1  UNL1        0.0031
     10 C           3.6489   -1.0946   21.9816 C.ar    1  UNL1        0.0003
     11 C           5.0002   -1.7420   22.0507 C.ar    1  UNL1        0.0042
     12 C           5.4592   -2.6401   20.9404 C.ar    1  UNL1        0.0479
     13 C           6.8105   -3.2876   21.0095 C.2     1  UNL1        0.0758
     14 O           6.9424   -4.6969   21.5057 O.co2   1  UNL1       -0.5445
     15 O           8.0300   -2.5256   20.5822 O.co2   1  UNL1       -0.5445
     16 C           4.6588   -5.2433   18.6622 C.3     1  UNL1        0.2525
     17 O           5.0259   -3.7889   18.6508 O.3     1  UNL1       -0.4714
     18 N           4.4726    1.1225   26.6082 N.am    1  UNL1       -0.2656
     19 C           4.2876    0.2677   27.8268 C.2     1  UNL1        0.3082
     20 O           3.2318   -0.7976   27.8423 O.2     1  UNL1       -0.2521
     21 N           5.1585    0.4782   29.0299 N.am    1  UNL1       -0.2681
     22 H           5.1656    1.8218   26.5980 H       1  UNL1        0.1565
     23 H           5.8515    1.1774   29.0197 H       1  UNL1        0.1564
     24 C           4.9735   -0.3767   30.2484 C.ar    1  UNL1        0.0513
     25 C           3.9166   -0.0295   31.2547 C.ar    1  UNL1        0.0147
     26 C           3.7317   -0.8845   32.4733 C.ar    1  UNL1        0.0010
     27 C           4.6035   -2.0864   32.6857 C.ar    1  UNL1       -0.0042
     28 C           5.6604   -2.4335   31.6794 C.ar    1  UNL1       -0.0206
     29 C           6.5322   -3.6355   31.8917 C.3     1  UNL1        0.0311
     30 C           5.8454   -1.5787   30.4608 C.ar    1  UNL1        0.0105
     31 O           1.8129    2.4978   26.4227 O.3     1  UNL1       -0.4526
     32 C           0.9774    1.9440   27.5386 C.ar    1  UNL1        0.1410
     33 C          -0.1783    1.0383   27.2319 C.ar    1  UNL1        0.0371
     34 C          -1.0138    0.4845   28.3478 C.ar    1  UNL1        0.0028
     35 C          -0.6935    0.8363   29.7704 C.ar    1  UNL1       -0.0044
     36 C           0.4623    1.7419   30.0771 C.ar    1  UNL1       -0.0232
     37 C           1.2977    2.2958   28.9612 C.ar    1  UNL1        0.0084
     38 C           2.4535    3.2014   29.2678 C.3     1  UNL1        0.0291
     39 C           2.7737    3.5532   30.6903 C.3     1  UNL1        0.0051
     40 C           1.9383    2.9993   31.8062 C.3     1  UNL1        0.0050
     41 C           0.7825    2.0937   31.4996 C.3     1  UNL1        0.0261
@<TRIPOS>UNITY_ATOM_ATTR
14 1
charge -1
@<TRIPOS>BOND
     1    16    17    1
     2    17     7    1
     3     7     8   ar
     4     8     9   ar
     5     9    10   ar
     6    10     1    1
     7     1     2   ar
     8     2     3   ar
     9     3     4   ar
    10     4    31    1
    11    31    32    1
    12    32    33   ar
    13    33    34   ar
    14    34    35   ar
    15    35    36   ar
    16    36    37   ar
    17    37    38    1
    18    38    39    1
    19    39    40    1
    20    40    41    1
    21     4     5   ar
    22     5    18    1
    23    18    19   am
    24    19    20    2
    25    19    21   am
    26    21    24    1
    27    24    25   ar
    28    25    26   ar
    29    26    27   ar
    30    27    28   ar
    31    28    29    1
    32    28    30   ar
    33     5     6   ar
    34    10    11   ar
    35    11    12   ar
    36    12    13    1
    37    13    14   ar
    38    13    15   ar
    39    12     7   ar
    40     6     1   ar
    41    37    32   ar
    42    30    24   ar
    43    41    36    1
    44    18    22    1
    45    21    23    1
@<TRIPOS>MOLECULE
*****
 41 45 0 0 0
SMALL
GASTEIGER

@<TRIPOS>ATOM
      1 C           1.8406    0.4581   21.0301 C.ar    1  UNL1        0.0014
      2 C           1.6521    1.1115   19.6932 C.ar    1  UNL1        0.0032
      3 C           0.7376    2.2928   19.5580 C.ar    1  UNL1        0.0388
      4 C           0.0117    2.8207   20.7598 C.ar    1  UNL1        0.1586
      5 C           0.2002    2.1672   22.0968 C.ar    1  UNL1        0.0865
      6 C           1.1147    0.9859   22.2320 C.ar    1  UNL1        0.0178
      7 C           4.5841   -3.0857   21.4356 C.ar    1  UNL1        0.1397
      8 C           4.1683   -2.3159   22.6540 C.ar    1  UNL1        0.0369
      9 C           3.2538   -1.1347   22.5188 C.ar    1  UNL1        0.0031
     10 C           2.7551   -0.7232   21.1653 C.ar    1  UNL1        0.0003
     11 C           3.1710   -1.4930   19.9469 C.ar    1  UNL1        0.0042
     12 C           4.0855   -2.6743   20.0821 C.ar    1  UNL1        0.0479
     13 C           4.5014   -3.4441   18.8637 C.2     1  UNL1        0.0758
     14 O           5.4089   -2.8118   17.8505 O.co2   1  UNL1       -0.5445
     15 O           4.0097   -4.8464   18.6585 O.co2   1  UNL1       -0.5445
     16 C           6.9514   -4.0592   21.8811 C.3     1  UNL1        0.2525
     17 O           5.4986   -4.2670   21.5707 O.3     1  UNL1       -0.4714
     18 N          -0.5258    2.6950   23.2986 N.am    1  UNL1       -0.2656
     19 C          -0.1200    2.2538   24.6736 C.2     1  UNL1        0.3082
     20 O           1.0117    1.2847   24.8468 O.2     1  UNL1       -0.2521
     21 N          -0.8460    2.7816   25.8754 N.am    1  UNL1       -0.2681
     22 H          -1.2685    3.3311   23.1850 H       1  UNL1        0.1565
     23 H          -1.5888    3.4177   25.7617 H       1  UNL1        0.1564
     24 C          -0.4403    2.3404   27.2504 C.ar    1  UNL1        0.0513
     25 C          -0.9220    1.0258   27.7889 C.ar    1  UNL1        0.0147
     26 C          -0.5162    0.5846   29.1639 C.ar    1  UNL1        0.0010
     27 C           0.3713    1.4579   30.0004 C.ar    1  UNL1       -0.0042
     28 C           0.8530    2.7724   29.4620 C.ar    1  UNL1       -0.0206
     29 C           1.7404    3.6457   30.2985 C.3     1  UNL1        0.0311
     30 C           0.4472    3.2137   28.0870 C.ar    1  UNL1        0.0105
     31 O          -0.9028    4.0019   20.6247 O.3     1  UNL1       -0.4526
     32 C          -2.3449    3.7969   20.2662 C.ar    1  UNL1        0.1410
     33 C          -3.3444    3.4703   21.3359 C.ar    1  UNL1        0.0371
     34 C          -4.7865    3.2653   20.9774 C.ar    1  UNL1        0.0028
     35 C          -5.2290    3.3870   19.5494 C.ar    1  UNL1       -0.0044
     36 C          -4.2294    3.7136   18.4797 C.ar    1  UNL1       -0.0232
     37 C          -2.7873    3.9186   18.8381 C.ar    1  UNL1        0.0084
     38 C          -1.7877    4.2452   17.7685 C.3     1  UNL1        0.0291
     39 C          -2.2302    4.3669   16.3404 C.3     1  UNL1        0.0051
     40 C          -3.6723    4.1619   15.9820 C.3     1  UNL1        0.0050
     41 C          -4.6718    3.8352   17.0516 C.3     1  UNL1        0.0261
@<TRIPOS>UNITY_ATOM_ATTR
14 1
charge -1
@<TRIPOS>BOND
     1    16    17    1
     2    17     7    1
     3     7     8   ar
     4     8     9   ar
     5     9    10   ar
     6    10     1    1
     7     1     2   ar
     8     2     3   ar
     9     3     4   ar
    10     4    31    1
    11    31    32    1
    12    32    33   ar
    13    33    34   ar
    14    34    35   ar
    15    35    36   ar
    16    36    37   ar
    17    37    38    1
    18    38    39    1
    19    39    40    1
    20    40    41    1
    21     4     5   ar
    22     5    18    1
    23    18    19   am
    24    19    20    2
    25    19    21   am
    26    21    24    1
    27    24    25   ar
    28    25    26   ar
    29    26    27   ar
    30    27    28   ar
    31    28    29    1
    32    28    30   ar
    33     5     6   ar
    34    10    11   ar
    35    11    12   ar
    36    12    13    1
    37    13    14   ar
    38    13    15   ar
    39    12     7   ar
    40     6     1   ar
    41    37    32   ar
    42    30    24   ar
    43    41    36    1
    44    18    22    1
    45    21    23    1
@<TRIPOS>MOLECULE
*****
 41 45 0 0 0
SMALL
GASTEIGER

@<TRIPOS>ATOM
      1 C           2.8208   -0.0026   22.4705 C.ar    1  UNL1        0.0014
      2 C           2.7192    1.2123   21.5967 C.ar    1  UNL1        0.0032
      3 C           1.8223    2.3478   21.9922 C.ar    1  UNL1        0.0388
      4 C           1.0270    2.2683   23.2615 C.ar    1  UNL1        0.1586
      5 C           1.1286    1.0533   24.1354 C.ar    1  UNL1        0.0865
      6 C           2.0255   -0.0821   23.7399 C.ar    1  UNL1        0.0178
      7 C           5.5115   -3.4088   21.2841 C.ar    1  UNL1        0.1397
      8 C           5.5868   -2.8415   22.6707 C.ar    1  UNL1        0.0369
      9 C           4.6899   -1.7061   23.0661 C.ar    1  UNL1        0.0031
     10 C           3.7177   -1.1380   22.0751 C.ar    1  UNL1        0.0003
     11 C           3.6424   -1.7053   20.6885 C.ar    1  UNL1        0.0042
     12 C           4.5394   -2.8407   20.2931 C.ar    1  UNL1        0.0479
     13 C           4.4641   -3.4081   18.9065 C.2     1  UNL1        0.0758
     14 O           5.3146   -2.8321   17.8134 O.co2   1  UNL1       -0.5445
     15 O           3.5384   -4.5514   18.6132 O.co2   1  UNL1       -0.5445
     16 C           7.8970   -4.3992   21.0035 C.3     1  UNL1        0.2525
     17 O           6.4084   -4.5442   20.8886 O.3     1  UNL1       -0.4714
     18 N           0.3334    0.9738   25.4047 N.am    1  UNL1       -0.2656
     19 C           1.0128    1.1628   26.7285 C.2     1  UNL1        0.3082
     20 O           2.4875    1.4313   26.7830 O.2     1  UNL1       -0.2521
     21 N           0.2175    1.0833   27.9979 N.am    1  UNL1       -0.2681
     22 H          -0.6346    0.7976   25.3689 H       1  UNL1        0.1565
     23 H          -0.7504    0.9070   27.9621 H       1  UNL1        0.1564
     24 C           0.8970    1.2723   29.3217 C.ar    1  UNL1        0.0513
     25 C           0.6529    2.5193   30.1188 C.ar    1  UNL1        0.0147
     26 C           1.3324    2.7082   31.4427 C.ar    1  UNL1        0.0010
     27 C           2.2560    1.6502   31.9694 C.ar    1  UNL1       -0.0042
     28 C           2.5001    0.4032   31.1723 C.ar    1  UNL1       -0.0206
     29 C           3.4237   -0.6548   31.6991 C.3     1  UNL1        0.0311
     30 C           1.8207    0.2142   29.8485 C.ar    1  UNL1        0.0105
     31 O           0.1301    3.4037   23.6570 O.3     1  UNL1       -0.4526
     32 C          -1.2907    3.4392   23.1775 C.ar    1  UNL1        0.1410
     33 C          -1.5920    3.3061   21.7141 C.ar    1  UNL1        0.0371
     34 C          -3.0128    3.3416   21.2346 C.ar    1  UNL1        0.0028
     35 C          -4.1324    3.5102   22.2184 C.ar    1  UNL1       -0.0044
     36 C          -3.8312    3.6433   23.6819 C.ar    1  UNL1       -0.0232
     37 C          -2.4104    3.6078   24.1614 C.ar    1  UNL1        0.0084
     38 C          -2.1091    3.7409   25.6248 C.3     1  UNL1        0.0291
     39 C          -3.2287    3.9095   26.6086 C.3     1  UNL1        0.0051
     40 C          -4.6496    3.9450   26.1291 C.3     1  UNL1        0.0050
     41 C          -4.9508    3.8119   24.6657 C.3     1  UNL1        0.0261
@<TRIPOS>UNITY_ATOM_ATTR
14 1
charge -1
@<TRIPOS>BOND
     1    16    17    1
     2    17     7    1
     3     7     8   ar
     4     8     9   ar
     5     9    10   ar
     6    10     1    1
     7     1     2   ar
     8     2     3   ar
     9     3     4   ar
    10     4    31    1
    11    31    32    1
    12    32    33   ar
    13    33    34   ar
    14    34    35   ar
    15    35    36   ar
    16    36    37   ar
    17    37    38    1
    18    38    39    1
    19    39    40    1
    20    40    41    1
    21     4     5   ar
    22     5    18    1
    23    18    19   am
    24    19    20    2
    25    19    21   am
    26    21    24    1
    27    24    25   ar
    28    25    26   ar
    29    26    27   ar
    30    27    28   ar
    31    28    29    1
    32    28    30   ar
    33     5     6   ar
    34    10    11   ar
    35    11    12   ar
    36    12    13    1
    37    13    14   ar
    38    13    15   ar
    39    12     7   ar
    40     6     1   ar
    41    37    32   ar
    42    30    24   ar
    43    41    36    1
    44    18    22    1
    45    21    23    1
@<TRIPOS>MOLECULE
*****
 41 45 0 0 0
SMALL
GASTEIGER

@<TRIPOS>ATOM
      1 C           1.7667    0.9031   20.0289 C.ar    1  UNL1        0.0014
      2 C           0.8252    1.5050   19.0283 C.ar    1  UNL1        0.0032
      3 C          -0.0740    2.6363   19.4306 C.ar    1  UNL1        0.0388
      4 C          -0.0317    3.1655   20.8335 C.ar    1  UNL1        0.1586
      5 C           0.9099    2.5635   21.8341 C.ar    1  UNL1        0.0865
      6 C           1.8090    1.4323   21.4318 C.ar    1  UNL1        0.0178
      7 C           4.4642   -2.4905   18.8220 C.ar    1  UNL1        0.1397
      8 C           3.2471   -2.7601   19.6562 C.ar    1  UNL1        0.0369
      9 C           2.3479   -1.6290   20.0585 C.ar    1  UNL1        0.0031
     10 C           2.6659   -0.2281   19.6266 C.ar    1  UNL1        0.0003
     11 C           3.8830    0.0416   18.7924 C.ar    1  UNL1        0.0042
     12 C           4.7821   -1.0897   18.3901 C.ar    1  UNL1        0.0479
     13 C           5.9993   -0.8201   17.5558 C.2     1  UNL1        0.0758
     14 O           7.3117   -1.4491   17.9188 O.co2   1  UNL1       -0.5445
     15 O           5.9039    0.0787   16.3586 O.co2   1  UNL1       -0.5445
     16 C           4.9350   -5.0401   18.6539 C.3     1  UNL1        0.2525
     17 O           5.3634   -3.6217   18.4196 O.3     1  UNL1       -0.4714
     18 N           0.9522    3.0927   23.2370 N.am    1  UNL1       -0.2656
     19 C           0.6693    2.1788   24.3923 C.2     1  UNL1        0.3082
     20 O           0.3441    0.7356   24.1446 O.2     1  UNL1       -0.2521
     21 N           0.7117    2.7080   25.7952 N.am    1  UNL1       -0.2681
     22 H           1.1656    4.0400   23.3996 H       1  UNL1        0.1565
     23 H           0.9251    3.6552   25.9577 H       1  UNL1        0.1564
     24 C           0.4288    1.7940   26.9504 C.ar    1  UNL1        0.0513
     25 C          -0.9827    1.5843   27.4127 C.ar    1  UNL1        0.0147
     26 C          -1.2655    0.6702   28.5680 C.ar    1  UNL1        0.0010
     27 C          -0.1369   -0.0340   29.2609 C.ar    1  UNL1       -0.0042
     28 C           1.2746    0.1758   28.7987 C.ar    1  UNL1       -0.0206
     29 C           2.4032   -0.5284   29.4916 C.3     1  UNL1        0.0311
     30 C           1.5575    1.0898   27.6434 C.ar    1  UNL1        0.0105
     31 O          -0.9309    4.2967   21.2359 O.3     1  UNL1       -0.4526
     32 C          -2.3358    4.0164   21.6803 C.ar    1  UNL1        0.1410
     33 C          -2.6456    3.8713   23.1408 C.ar    1  UNL1        0.0371
     34 C          -4.0505    3.5910   23.5853 C.ar    1  UNL1        0.0028
     35 C          -5.1457    3.4557   22.5693 C.ar    1  UNL1       -0.0044
     36 C          -4.8359    3.6008   21.1087 C.ar    1  UNL1       -0.0232
     37 C          -3.4310    3.8811   20.6643 C.ar    1  UNL1        0.0084
     38 C          -3.1212    4.0261   19.2038 C.3     1  UNL1        0.0291
     39 C          -4.2164    3.8908   18.1879 C.3     1  UNL1        0.0051
     40 C          -5.6214    3.6105   18.6323 C.3     1  UNL1        0.0050
     41 C          -5.9311    3.4655   20.0928 C.3     1  UNL1        0.0261
@<TRIPOS>UNITY_ATOM_ATTR
14 1
charge -1
@<TRIPOS>BOND
     1    16    17    1
     2    17     7    1
     3     7     8   ar
     4     8     9   ar
     5     9    10   ar
     6    10     1    1
     7     1     2   ar
     8     2     3   ar
     9     3     4   ar
    10     4    31    1
    11    31    32    1
    12    32    33   ar
    13    33    34   ar
    14    34    35   ar
    15    35    36   ar
    16    36    37   ar
    17    37    38    1
    18    38    39    1
    19    39    40    1
    20    40    41    1
    21     4     5   ar
    22     5    18    1
    23    18    19   am
    24    19    20    2
    25    19    21   am
    26    21    24    1
    27    24    25   ar
    28    25    26   ar
    29    26    27   ar
    30    27    28   ar
    31    28    29    1
    32    28    30   ar
    33     5     6   ar
    34    10    11   ar
    35    11    12   ar
    36    12    13    1
    37    13    14   ar
    38    13    15   ar
    39    12     7   ar
    40     6     1   ar
    41    37    32   ar
    42    30    24   ar
    43    41    36    1
    44    18    22    1
    45    21    23    1
@<TRIPOS>MOLECULE
*****
 41 45 0 0 0
SMALL
GASTEIGER

@<TRIPOS>ATOM
      1 C           1.6421    1.0058   24.5459 C.ar    1  UNL1        0.0014
      2 C           2.4130   -0.1550   23.9909 C.ar    1  UNL1        0.0032
      3 C           2.7483   -0.2028   22.5295 C.ar    1  UNL1        0.0388
      4 C           2.3125    0.9102   21.6233 C.ar    1  UNL1        0.1586
      5 C           1.5415    2.0711   22.1784 C.ar    1  UNL1        0.0865
      6 C           1.2063    2.1188   23.6397 C.ar    1  UNL1        0.0178
      7 C           0.6364    1.1491   28.9297 C.ar    1  UNL1        0.1397
      8 C          -0.4327    1.3946   27.9066 C.ar    1  UNL1        0.0369
      9 C          -0.0975    1.3468   26.4453 C.ar    1  UNL1        0.0031
     10 C           1.3069    1.0536   26.0071 C.ar    1  UNL1        0.0003
     11 C           2.3759    0.8081   27.0303 C.ar    1  UNL1        0.0042
     12 C           2.0407    0.8559   28.4916 C.ar    1  UNL1        0.0479
     13 C           3.1098    0.6105   29.5148 C.2     1  UNL1        0.0758
     14 O           3.4371   -0.7914   29.9360 O.co2   1  UNL1       -0.5445
     15 O           3.8515    1.7671   30.1167 O.co2   1  UNL1       -0.5445
     16 C           0.4471    2.4811   31.1524 C.3     1  UNL1        0.2525
     17 O           0.3012    1.1969   30.3910 O.3     1  UNL1       -0.4714
     18 N           1.1058    3.1841   21.2722 N.am    1  UNL1       -0.2656
     19 C          -0.1271    3.0283   20.4322 C.2     1  UNL1        0.3082
     20 O          -0.9242    1.7594   20.4984 O.2     1  UNL1       -0.2521
     21 N          -0.5628    4.1413   19.5259 N.am    1  UNL1       -0.2681
     22 H           1.6290    4.0169   21.2287 H       1  UNL1        0.1565
     23 H          -0.0396    4.9741   19.4825 H       1  UNL1        0.1564
     24 C          -1.7957    3.9854   18.6859 C.ar    1  UNL1        0.0513
     25 C          -1.6805    3.9051   17.1925 C.ar    1  UNL1        0.0147
     26 C          -2.9135    3.7493   16.3525 C.ar    1  UNL1        0.0010
     27 C          -4.2616    3.6737   17.0059 C.ar    1  UNL1       -0.0042
     28 C          -4.3768    3.7540   18.4993 C.ar    1  UNL1       -0.0206
     29 C          -5.7248    3.6785   19.1527 C.3     1  UNL1        0.0311
     30 C          -3.1439    3.9099   19.3393 C.ar    1  UNL1        0.0105
     31 O           2.6477    0.8624   20.1621 O.3     1  UNL1       -0.4526
     32 C           4.0266    0.4693   19.7213 C.ar    1  UNL1        0.1410
     33 C           5.1068    1.5054   19.6241 C.ar    1  UNL1        0.0371
     34 C           6.4857    1.1122   19.1834 C.ar    1  UNL1        0.0028
     35 C           6.7842   -0.3170   18.8398 C.ar    1  UNL1       -0.0044
     36 C           5.7039   -1.3532   18.9370 C.ar    1  UNL1       -0.0232
     37 C           4.3251   -0.9600   19.3778 C.ar    1  UNL1        0.0084
     38 C           3.2448   -1.9961   19.4749 C.3     1  UNL1        0.0291
     39 C           3.5434   -3.4254   19.1314 C.3     1  UNL1        0.0051
     40 C           4.9223   -3.8185   18.6906 C.3     1  UNL1        0.0050
     41 C           6.0025   -2.7824   18.5935 C.3     1  UNL1        0.0261
@<TRIPOS>UNITY_ATOM_ATTR
14 1
charge -1
@<TRIPOS>BOND
     1    16    17    1
     2    17     7    1
     3     7     8   ar
     4     8     9   ar
     5     9    10   ar
     6    10     1    1
     7     1     2   ar
     8     2     3   ar
     9     3     4   ar
    10     4    31    1
    11    31    32    1
    12    32    33   ar
    13    33    34   ar
    14    34    35   ar
    15    35    36   ar
    16    36    37   ar
    17    37    38    1
    18    38    39    1
    19    39    40    1
    20    40    41    1
    21     4     5   ar
    22     5    18    1
    23    18    19   am
    24    19    20    2
    25    19    21   am
    26    21    24    1
    27    24    25   ar
    28    25    26   ar
    29    26    27   ar
    30    27    28   ar
    31    28    29    1
    32    28    30   ar
    33     5     6   ar
    34    10    11   ar
    35    11    12   ar
    36    12    13    1
    37    13    14   ar
    38    13    15   ar
    39    12     7   ar
    40     6     1   ar
    41    37    32   ar
    42    30    24   ar
    43    41    36    1
    44    18    22    1
    45    21    23    1
@<TRIPOS>MOLECULE
*****
 41 45 0 0 0
SMALL
GASTEIGER

@<TRIPOS>ATOM
      1 C           3.4267   -0.0973   26.1080 C.ar    1  UNL1        0.0014
      2 C           2.8237    0.0998   24.7488 C.ar    1  UNL1        0.0032
      3 C           3.6036   -0.2686   23.5216 C.ar    1  UNL1        0.0388
      4 C           4.9866   -0.8342   23.6537 C.ar    1  UNL1        0.1586
      5 C           5.5897   -1.0313   25.0129 C.ar    1  UNL1        0.0865
      6 C           4.8098   -0.6629   26.2401 C.ar    1  UNL1        0.0178
      7 C           1.0868    1.0080   29.7894 C.ar    1  UNL1        0.1397
      8 C           0.5418    1.3300   28.4296 C.ar    1  UNL1        0.0369
      9 C           1.3217    0.9615   27.2024 C.ar    1  UNL1        0.0031
     10 C           2.6468    0.2711   27.3351 C.ar    1  UNL1        0.0003
     11 C           3.1919   -0.0508   28.6950 C.ar    1  UNL1        0.0042
     12 C           2.4118    0.3177   29.9222 C.ar    1  UNL1        0.0479
     13 C           2.9569   -0.0043   31.2821 C.2     1  UNL1        0.0758
     14 O           3.1290   -1.4340   31.7019 O.co2   1  UNL1       -0.5445
     15 O           3.3298    1.1036   32.2221 O.co2   1  UNL1       -0.5445
     16 C           0.3964    2.7667   31.5729 C.3     1  UNL1        0.2525
     17 O           0.3069    1.3765   31.0166 O.3     1  UNL1       -0.4714
     18 N           6.9727   -1.5968   25.1450 N.am    1  UNL1       -0.2656
     19 C           7.2016   -3.0683   24.9654 C.2     1  UNL1        0.3082
     20 O           6.0474   -3.9743   24.6538 O.2     1  UNL1       -0.2521
     21 N           8.5846   -3.6339   25.0975 N.am    1  UNL1       -0.2681
     22 H           7.7302   -1.0022   25.3495 H       1  UNL1        0.1565
     23 H           9.3421   -3.0392   25.3020 H       1  UNL1        0.1564
     24 C           8.8134   -5.1054   24.9179 C.ar    1  UNL1        0.0513
     25 C           9.2874   -5.6350   23.5970 C.ar    1  UNL1        0.0147
     26 C           9.5162   -7.1066   23.4175 C.ar    1  UNL1        0.0010
     27 C           9.2711   -8.0484   24.5589 C.ar    1  UNL1       -0.0042
     28 C           8.7972   -7.5188   25.8798 C.ar    1  UNL1       -0.0206
     29 C           8.5522   -8.4606   27.0212 C.3     1  UNL1        0.0311
     30 C           8.5684   -6.0473   26.0594 C.ar    1  UNL1        0.0105
     31 O           5.7666   -1.2026   22.4265 O.3     1  UNL1       -0.4526
     32 C           5.0961   -1.9386   21.3046 C.ar    1  UNL1        0.1410
     33 C           4.8215   -3.4079   21.4298 C.ar    1  UNL1        0.0371
     34 C           4.1510   -4.1439   20.3079 C.ar    1  UNL1        0.0028
     35 C           3.7551   -3.4105   19.0607 C.ar    1  UNL1       -0.0044
     36 C           4.0298   -1.9412   18.9354 C.ar    1  UNL1       -0.0232
     37 C           4.7003   -1.2052   20.0573 C.ar    1  UNL1        0.0084
     38 C           4.9749    0.2641   19.9321 C.3     1  UNL1        0.0291
     39 C           4.5791    0.9974   18.6849 C.3     1  UNL1        0.0051
     40 C           3.9086    0.2614   17.5630 C.3     1  UNL1        0.0050
     41 C           3.6339   -1.2079   17.6882 C.3     1  UNL1        0.0261
@<TRIPOS>UNITY_ATOM_ATTR
14 1
charge -1
@<TRIPOS>BOND
     1    16    17    1
     2    17     7    1
     3     7     8   ar
     4     8     9   ar
     5     9    10   ar
     6    10     1    1
     7     1     2   ar
     8     2     3   ar
     9     3     4   ar
    10     4    31    1
    11    31    32    1
    12    32    33   ar
    13    33    34   ar
    14    34    35   ar
    15    35    36   ar
    16    36    37   ar
    17    37    38    1
    18    38    39    1
    19    39    40    1
    20    40    41    1
    21     4     5   ar
    22     5    18    1
    23    18    19   am
    24    19    20    2
    25    19    21   am
    26    21    24    1
    27    24    25   ar
    28    25    26   ar
    29    26    27   ar
    30    27    28   ar
    31    28    29    1
    32    28    30   ar
    33     5     6   ar
    34    10    11   ar
    35    11    12   ar
    36    12    13    1
    37    13    14   ar
    38    13    15   ar
    39    12     7   ar
    40     6     1   ar
    41    37    32   ar
    42    30    24   ar
    43    41    36    1
    44    18    22    1
    45    21    23    1
