@<TRIPOS>MOLECULE
*****
 34 37 0 0 0
SMALL
GASTEIGER

@<TRIPOS>ATOM
      1 C         -10.9239  -18.1479   24.3524 C.3     1  UNL1        0.1153
      2 N          -9.5784  -18.2016   23.6917 N.am    1  UNL1       -0.2714
      3 C          -9.0446  -19.5074   23.1820 C.2     1  UNL1        0.2665
      4 O          -9.8565  -20.7596   23.3330 O.2     1  UNL1       -0.2710
      5 C          -7.6991  -19.5611   22.5213 C.3     1  UNL1        0.2456
      6 C          -6.3906  -19.1906   23.1542 C.3     1  UNL1        0.0826
      7 C          -5.3085  -19.3952   22.1357 C.ar    1  UNL1        0.0172
      8 C          -3.8234  -19.1932   22.1948 C.ar    1  UNL1        0.0147
      9 C          -2.9780  -19.4881   20.9914 C.ar    1  UNL1        0.0643
     10 C          -3.6177  -19.9851   19.7289 C.ar    1  UNL1        0.0189
     11 C          -5.1029  -20.1871   19.6699 C.ar    1  UNL1        0.0379
     12 C          -5.9483  -19.8921   20.8733 C.ar    1  UNL1        0.1353
     13 O          -7.4257  -19.9947   21.1116 O.3     1  UNL1       -0.4699
     14 N          -1.4928  -19.2861   21.0504 N.pl3   1  UNL1       -0.2187
     15 H          -0.9221  -19.9555   21.4926 H       1  UNL1        0.1734
     16 S          -0.8771  -18.0643   20.4356 S.O2    1  UNL1        0.0558
     17 C          -0.2614  -16.8424   19.8209 C.3     1  UNL1        0.1996
     18 O          -1.8900  -17.2039   21.1313 O.2     1  UNL1       -0.1544
     19 O           0.1358  -18.9246   19.7400 O.2     1  UNL1       -0.1544
     20 C          -8.7665  -16.9493   23.5407 C.3     1  UNL1        0.1139
     21 C          -8.0307  -16.3857   24.7201 C.ar    1  UNL1       -0.0029
     22 C          -6.6676  -15.7868   24.5374 C.ar    1  UNL1       -0.0026
     23 C          -5.9318  -15.2233   25.7167 C.ar    1  UNL1       -0.0003
     24 C          -6.5590  -15.2586   27.0788 C.ar    1  UNL1       -0.0000
     25 C          -7.9220  -15.8574   27.2616 C.ar    1  UNL1       -0.0003
     26 C          -8.6579  -16.4210   26.0822 C.ar    1  UNL1       -0.0026
     27 C          -8.6905  -16.2606   22.2103 C.3     1  UNL1        0.0968
     28 N          -9.7811  -16.4588   21.1998 N.3     1  UNL1       -0.2689
     29 C         -10.1589  -17.7588   20.5538 C.3     1  UNL1        0.0748
     30 C         -11.2968  -17.4953   19.6126 C.3     1  UNL1        0.0480
     31 C         -11.6221  -16.0324   19.6769 C.3     1  UNL1        0.1278
     32 O         -12.6958  -15.3329   18.8971 O.3     1  UNL1       -0.3830
     33 C         -10.6854  -15.3918   20.6578 C.3     1  UNL1        0.1017
     34 H         -12.6968  -14.3895   19.1228 H       1  UNL1        0.2104
@<TRIPOS>BOND
     1     1     2    1
     2     2     3   am
     3     3     4    2
     4     5     3    1
     5     5     6    1
     6     6     7    1
     7     7     8   ar
     8     8     9   ar
     9     9    14    1
    10    14    16    1
    11    16    17    1
    12    16    18    2
    13    16    19    2
    14     9    10   ar
    15    10    11   ar
    16    11    12   ar
    17    12    13    1
    18     2    20    1
    19    20    27    1
    20    27    28    1
    21    28    29    1
    22    29    30    1
    23    30    31    1
    24    31    32    1
    25    31    33    1
    26    20    21    1
    27    21    22   ar
    28    22    23   ar
    29    23    24   ar
    30    24    25   ar
    31    25    26   ar
    32    13     5    1
    33    33    28    1
    34    26    21   ar
    35    12     7   ar
    36    14    15    1
    37    32    34    1
@<TRIPOS>MOLECULE
*****
 34 37 0 0 0
SMALL
GASTEIGER

@<TRIPOS>ATOM
      1 C         -11.4373  -19.0747   19.4276 C.3     1  UNL1        0.1153
      2 N         -10.1160  -18.8420   20.0983 N.am    1  UNL1       -0.2714
      3 C          -8.8765  -19.4925   19.5594 C.2     1  UNL1        0.2665
      4 O          -8.9583  -20.3757   18.3498 O.2     1  UNL1       -0.2710
      5 C          -7.5551  -19.2598   20.2302 C.3     1  UNL1        0.2456
      6 C          -6.2116  -19.2835   19.5635 C.3     1  UNL1        0.0826
      7 C          -5.1714  -19.0008   20.6066 C.ar    1  UNL1        0.0172
      8 C          -3.6768  -18.8985   20.5318 C.ar    1  UNL1        0.0147
      9 C          -2.8829  -18.5977   21.7684 C.ar    1  UNL1        0.0643
     10 C          -3.5835  -18.3993   23.0797 C.ar    1  UNL1        0.0189
     11 C          -5.0781  -18.5017   23.1546 C.ar    1  UNL1        0.0379
     12 C          -5.8721  -18.8024   21.9180 C.ar    1  UNL1        0.1353
     13 O          -7.3452  -18.9625   21.6853 O.3     1  UNL1       -0.4699
     14 N          -1.3882  -18.4954   21.6936 N.pl3   1  UNL1       -0.2187
     15 H          -0.8294  -18.9498   22.3648 H       1  UNL1        0.1734
     16 S          -0.7449  -17.7007   20.5961 S.O2    1  UNL1        0.0558
     17 C          -0.1015  -16.9059   19.4985 C.3     1  UNL1        0.1996
     18 O          -0.1713  -18.9611   20.0195 O.2     1  UNL1       -0.1544
     19 O          -1.3184  -16.4402   21.1726 O.2     1  UNL1       -0.1544
     20 C         -10.0342  -17.9587   21.3080 C.3     1  UNL1        0.1139
     21 C         -10.8320  -18.2903   22.5341 C.ar    1  UNL1       -0.0029
     22 C         -12.2312  -17.7700   22.6820 C.ar    1  UNL1       -0.0026
     23 C         -13.0290  -18.1016   23.9081 C.ar    1  UNL1       -0.0003
     24 C         -12.4278  -18.9536   24.9864 C.ar    1  UNL1       -0.0000
     25 C         -11.0288  -19.4739   24.8385 C.ar    1  UNL1       -0.0003
     26 C         -10.2309  -19.1423   23.6124 C.ar    1  UNL1       -0.0026
     27 C          -9.1545  -16.7439   21.2914 C.3     1  UNL1        0.0968
     28 N          -8.6882  -16.1380   22.5819 N.3     1  UNL1       -0.2689
     29 C          -9.5015  -15.9966   23.8343 C.3     1  UNL1        0.0748
     30 C          -8.6426  -15.3383   24.8730 C.3     1  UNL1        0.0480
     31 C          -7.2984  -15.0728   24.2625 C.3     1  UNL1        0.1278
     32 O          -6.1310  -14.4265   24.9477 O.3     1  UNL1       -0.3830
     33 C          -7.3265  -15.5670   22.8466 C.3     1  UNL1        0.1017
     34 H          -5.3835  -14.3734   24.3319 H       1  UNL1        0.2104
@<TRIPOS>BOND
     1     1     2    1
     2     2     3   am
     3     3     4    2
     4     5     3    1
     5     5     6    1
     6     6     7    1
     7     7     8   ar
     8     8     9   ar
     9     9    14    1
    10    14    16    1
    11    16    17    1
    12    16    18    2
    13    16    19    2
    14     9    10   ar
    15    10    11   ar
    16    11    12   ar
    17    12    13    1
    18     2    20    1
    19    20    27    1
    20    27    28    1
    21    28    29    1
    22    29    30    1
    23    30    31    1
    24    31    32    1
    25    31    33    1
    26    20    21    1
    27    21    22   ar
    28    22    23   ar
    29    23    24   ar
    30    24    25   ar
    31    25    26   ar
    32    13     5    1
    33    33    28    1
    34    26    21   ar
    35    12     7   ar
    36    14    15    1
    37    32    34    1
@<TRIPOS>MOLECULE
*****
 34 37 0 0 0
SMALL
GASTEIGER

@<TRIPOS>ATOM
      1 C         -10.8405  -18.1704   24.5658 C.3     1  UNL1        0.1153
      2 N          -9.6631  -18.3041   23.6461 N.am    1  UNL1       -0.2714
      3 C          -8.8530  -19.5665   23.6434 C.2     1  UNL1        0.2665
      4 O          -9.2204  -20.6953   24.5604 O.2     1  UNL1       -0.2710
      5 C          -7.6756  -19.7002   22.7237 C.3     1  UNL1        0.2456
      6 C          -6.4982  -18.7732   22.6582 C.3     1  UNL1        0.0826
      7 C          -5.5638  -19.2845   21.6020 C.ar    1  UNL1        0.0172
      8 C          -4.2442  -18.7788   21.0993 C.ar    1  UNL1        0.0147
      9 C          -3.5245  -19.5161   20.0091 C.ar    1  UNL1        0.0643
     10 C          -4.1245  -20.7591   19.4218 C.ar    1  UNL1        0.0189
     11 C          -5.4441  -21.2648   19.9246 C.ar    1  UNL1        0.0379
     12 C          -6.1637  -20.5275   21.0147 C.ar    1  UNL1        0.1353
     13 O          -7.4689  -20.7844   21.7079 O.3     1  UNL1       -0.4699
     14 N          -2.2049  -19.0104   19.5063 N.pl3   1  UNL1       -0.2187
     15 H          -1.7227  -19.5055   18.8051 H       1  UNL1        0.1734
     16 S          -1.6198  -17.7502   20.0717 S.O2    1  UNL1        0.0558
     17 C          -1.0348  -16.4901   20.6372 C.3     1  UNL1        0.1996
     18 O          -0.7041  -18.5638   20.9375 O.2     1  UNL1       -0.1544
     19 O          -2.5355  -16.9366   19.2060 O.2     1  UNL1       -0.1544
     20 C          -9.2957  -17.1753   22.7290 C.3     1  UNL1        0.1139
     21 C         -10.0900  -16.9354   21.4794 C.ar    1  UNL1       -0.0029
     22 C         -10.7029  -18.0919   20.7466 C.ar    1  UNL1       -0.0026
     23 C         -11.4972  -17.8519   19.4970 C.ar    1  UNL1       -0.0003
     24 C         -11.6786  -16.4555   18.9802 C.ar    1  UNL1       -0.0000
     25 C         -11.0657  -15.2990   19.7129 C.ar    1  UNL1       -0.0003
     26 C         -10.2714  -15.5389   20.9626 C.ar    1  UNL1       -0.0026
     27 C          -8.1341  -16.2865   23.0616 C.3     1  UNL1        0.0968
     28 N          -7.8521  -15.9236   24.4894 N.3     1  UNL1       -0.2689
     29 C          -6.5146  -15.9809   25.1660 C.3     1  UNL1        0.0748
     30 C          -6.6939  -15.5324   26.5861 C.3     1  UNL1        0.0480
     31 C          -8.1423  -15.1980   26.7872 C.3     1  UNL1        0.1278
     32 O          -8.7655  -14.7078   28.0606 O.3     1  UNL1       -0.3830
     33 C          -8.8581  -15.4397   25.4914 C.3     1  UNL1        0.1017
     34 H          -9.7153  -14.5673   27.9225 H       1  UNL1        0.2104
@<TRIPOS>BOND
     1     1     2    1
     2     2     3   am
     3     3     4    2
     4     5     3    1
     5     5     6    1
     6     6     7    1
     7     7     8   ar
     8     8     9   ar
     9     9    14    1
    10    14    16    1
    11    16    17    1
    12    16    18    2
    13    16    19    2
    14     9    10   ar
    15    10    11   ar
    16    11    12   ar
    17    12    13    1
    18     2    20    1
    19    20    27    1
    20    27    28    1
    21    28    29    1
    22    29    30    1
    23    30    31    1
    24    31    32    1
    25    31    33    1
    26    20    21    1
    27    21    22   ar
    28    22    23   ar
    29    23    24   ar
    30    24    25   ar
    31    25    26   ar
    32    13     5    1
    33    33    28    1
    34    26    21   ar
    35    12     7   ar
    36    14    15    1
    37    32    34    1
@<TRIPOS>MOLECULE
*****
 34 37 0 0 0
SMALL
GASTEIGER

@<TRIPOS>ATOM
      1 C         -12.0878  -18.8569   24.8808 C.3     1  UNL1        0.1153
      2 N         -10.8382  -18.6465   24.0782 N.am    1  UNL1       -0.2714
      3 C          -9.8427  -19.7594   23.9347 C.2     1  UNL1        0.2665
      4 O         -10.0969  -21.0826   24.5937 O.2     1  UNL1       -0.2710
      5 C          -8.5931  -19.5490   23.1321 C.3     1  UNL1        0.2456
      6 C          -7.3956  -18.7521   23.5576 C.3     1  UNL1        0.0826
      7 C          -6.3839  -18.8092   22.4516 C.ar    1  UNL1        0.0172
      8 C          -5.0156  -18.2109   22.3111 C.ar    1  UNL1        0.0147
      9 C          -4.2196  -18.4448   21.0615 C.ar    1  UNL1        0.0643
     10 C          -4.7918  -19.2769   19.9524 C.ar    1  UNL1        0.0189
     11 C          -6.1601  -19.8752   20.0929 C.ar    1  UNL1        0.0379
     12 C          -6.9562  -19.6413   21.3425 C.ar    1  UNL1        0.1353
     13 O          -8.3215  -20.0985   21.7631 O.3     1  UNL1       -0.4699
     14 N          -2.8512  -17.8465   20.9210 N.pl3   1  UNL1       -0.2187
     15 H          -2.4177  -17.4216   21.6961 H       1  UNL1        0.1734
     16 S          -2.1433  -17.8957   19.5994 S.O2    1  UNL1        0.0558
     17 C          -1.4354  -17.9449   18.2779 C.3     1  UNL1        0.1996
     18 O          -1.2250  -18.9561   20.1308 O.2     1  UNL1       -0.1544
     19 O          -3.0616  -16.8353   19.0680 O.2     1  UNL1       -0.1544
     20 C         -10.5840  -17.3232   23.4191 C.3     1  UNL1        0.1139
     21 C         -10.7983  -17.1672   21.9428 C.ar    1  UNL1       -0.0029
     22 C         -10.8285  -15.7984   21.3298 C.ar    1  UNL1       -0.0026
     23 C         -11.0428  -15.6424   19.8535 C.ar    1  UNL1       -0.0003
     24 C         -11.2270  -16.8550   18.9900 C.ar    1  UNL1       -0.0000
     25 C         -11.1968  -18.2237   19.6029 C.ar    1  UNL1       -0.0003
     26 C         -10.9825  -18.3798   21.0793 C.ar    1  UNL1       -0.0026
     27 C         -10.1155  -16.1560   24.2365 C.3     1  UNL1        0.0968
     28 N          -8.6514  -15.8423   24.3257 N.3     1  UNL1       -0.2689
     29 C          -7.7965  -15.9651   25.5521 C.3     1  UNL1        0.0748
     30 C          -6.4019  -15.5494   25.1885 C.3     1  UNL1        0.0480
     31 C          -6.3948  -15.1697   23.7374 C.3     1  UNL1        0.1278
     32 O          -5.2062  -14.6926   22.9566 O.3     1  UNL1       -0.3830
     33 C          -7.7851  -15.3507   23.2041 C.3     1  UNL1        0.1017
     34 H          -5.4712  -14.5149   22.0405 H       1  UNL1        0.2104
@<TRIPOS>BOND
     1     1     2    1
     2     2     3   am
     3     3     4    2
     4     5     3    1
     5     5     6    1
     6     6     7    1
     7     7     8   ar
     8     8     9   ar
     9     9    14    1
    10    14    16    1
    11    16    17    1
    12    16    18    2
    13    16    19    2
    14     9    10   ar
    15    10    11   ar
    16    11    12   ar
    17    12    13    1
    18     2    20    1
    19    20    27    1
    20    27    28    1
    21    28    29    1
    22    29    30    1
    23    30    31    1
    24    31    32    1
    25    31    33    1
    26    20    21    1
    27    21    22   ar
    28    22    23   ar
    29    23    24   ar
    30    24    25   ar
    31    25    26   ar
    32    13     5    1
    33    33    28    1
    34    26    21   ar
    35    12     7   ar
    36    14    15    1
    37    32    34    1
@<TRIPOS>MOLECULE
*****
 34 37 0 0 0
SMALL
GASTEIGER

@<TRIPOS>ATOM
      1 C           1.5817    1.7034   18.2414 C.3     1  UNL1        0.1153
      2 N           2.5807    0.8986   19.0186 N.am    1  UNL1       -0.2714
      3 C           2.4559    0.7852   20.5091 C.2     1  UNL1        0.2665
      4 O           1.3319    1.4766   21.2223 O.2     1  UNL1       -0.2710
      5 C           3.4549   -0.0196   21.2863 C.3     1  UNL1        0.2456
      6 C           3.1696   -1.2773   22.0524 C.3     1  UNL1        0.0826
      7 C           4.4531   -1.7431   22.6735 C.ar    1  UNL1        0.0172
      8 C           4.7789   -2.9250   23.5377 C.ar    1  UNL1        0.0147
      9 C           6.1834   -3.1370   24.0197 C.ar    1  UNL1        0.0643
     10 C           7.2620   -2.1672   23.6376 C.ar    1  UNL1        0.0189
     11 C           6.9361   -0.9852   22.7734 C.ar    1  UNL1        0.0379
     12 C           5.5316   -0.7732   22.2914 C.ar    1  UNL1        0.1353
     13 O           4.9148    0.2919   21.4341 O.3     1  UNL1       -0.4699
     14 N           6.5094   -4.3190   24.8840 N.pl3   1  UNL1       -0.2187
     15 H           5.8905   -4.5911   25.5996 H       1  UNL1        0.1734
     16 S           7.7783   -5.0862   24.6578 S.O2    1  UNL1        0.0558
     17 C           9.0472   -5.8535   24.4316 C.3     1  UNL1        0.1996
     18 O           8.2580   -4.6957   26.0243 O.2     1  UNL1       -0.1544
     19 O           7.2986   -5.4767   23.2912 O.2     1  UNL1       -0.1544
     20 C           3.7047    0.2072   18.3054 C.3     1  UNL1        0.1139
     21 C           4.9892    0.9367   18.0450 C.ar    1  UNL1       -0.0029
     22 C           5.2522    2.2540   18.7125 C.ar    1  UNL1       -0.0026
     23 C           6.5367    2.9836   18.4522 C.ar    1  UNL1       -0.0003
     24 C           7.5583    2.3958   17.5244 C.ar    1  UNL1       -0.0000
     25 C           7.2954    1.0785   16.8569 C.ar    1  UNL1       -0.0003
     26 C           6.0108    0.3489   17.1172 C.ar    1  UNL1       -0.0026
     27 C           3.5441   -1.2138   17.8525 C.3     1  UNL1        0.0968
     28 N           4.0650   -2.3351   18.7017 N.3     1  UNL1       -0.2689
     29 C           3.2574   -3.4733   19.2514 C.3     1  UNL1        0.0748
     30 C           4.1782   -4.3567   20.0398 C.3     1  UNL1        0.0480
     31 C           5.5549   -3.7645   19.9774 C.3     1  UNL1        0.1278
     32 O           6.7856   -4.3236   20.6278 O.3     1  UNL1       -0.3830
     33 C           5.4850   -2.5150   19.1504 C.3     1  UNL1        0.1017
     34 H           7.5432   -3.7501   20.4328 H       1  UNL1        0.2104
@<TRIPOS>BOND
     1     1     2    1
     2     2     3   am
     3     3     4    2
     4     5     3    1
     5     5     6    1
     6     6     7    1
     7     7     8   ar
     8     8     9   ar
     9     9    14    1
    10    14    16    1
    11    16    17    1
    12    16    18    2
    13    16    19    2
    14     9    10   ar
    15    10    11   ar
    16    11    12   ar
    17    12    13    1
    18     2    20    1
    19    20    27    1
    20    27    28    1
    21    28    29    1
    22    29    30    1
    23    30    31    1
    24    31    32    1
    25    31    33    1
    26    20    21    1
    27    21    22   ar
    28    22    23   ar
    29    23    24   ar
    30    24    25   ar
    31    25    26   ar
    32    13     5    1
    33    33    28    1
    34    26    21   ar
    35    12     7   ar
    36    14    15    1
    37    32    34    1
@<TRIPOS>MOLECULE
*****
 34 37 0 0 0
SMALL
GASTEIGER

@<TRIPOS>ATOM
      1 C           6.4881    0.9918   17.2480 C.3     1  UNL1        0.1153
      2 N           5.8250    0.6112   18.5385 N.am    1  UNL1       -0.2714
      3 C           6.1544    1.3549   19.7988 C.2     1  UNL1        0.2665
      4 O           7.1470    2.4791   19.7686 O.2     1  UNL1       -0.2710
      5 C           5.4913    0.9743   21.0893 C.3     1  UNL1        0.2456
      6 C           5.8700   -0.1808   21.9681 C.3     1  UNL1        0.0826
      7 C           4.9458   -0.1869   23.1496 C.ar    1  UNL1        0.0172
      8 C           4.8465   -1.0921   24.3415 C.ar    1  UNL1        0.0147
      9 C           3.7973   -0.8461   25.3848 C.ar    1  UNL1        0.0643
     10 C           2.8473    0.3052   25.2361 C.ar    1  UNL1        0.0189
     11 C           2.9466    1.2104   24.0442 C.ar    1  UNL1        0.0379
     12 C           3.9958    0.9643   23.0009 C.ar    1  UNL1        0.1353
     13 O           4.3330    1.6820   21.7276 O.3     1  UNL1       -0.4699
     14 N           3.6980   -1.7513   26.5768 N.pl3   1  UNL1       -0.2187
     15 H           3.4003   -2.6829   26.4640 H       1  UNL1        0.1734
     16 S           4.0521   -1.2370   27.9406 S.O2    1  UNL1        0.0558
     17 C           4.4063   -0.7227   29.3045 C.3     1  UNL1        0.1996
     18 O           2.5945   -1.1191   28.2746 O.2     1  UNL1       -0.1544
     19 O           5.5097   -1.3549   27.6066 O.2     1  UNL1       -0.1544
     20 C           4.8323   -0.5130   18.5687 C.3     1  UNL1        0.1139
     21 C           3.3991   -0.2390   18.9158 C.ar    1  UNL1       -0.0029
     22 C           2.7222   -1.0360   19.9914 C.ar    1  UNL1       -0.0026
     23 C           1.2890   -0.7619   20.3385 C.ar    1  UNL1       -0.0003
     24 C           0.5325    0.3092   19.6103 C.ar    1  UNL1       -0.0000
     25 C           1.2092    1.1062   18.5348 C.ar    1  UNL1       -0.0003
     26 C           2.6426    0.8322   18.1876 C.ar    1  UNL1       -0.0026
     27 C           5.2731   -1.9113   18.2516 C.3     1  UNL1        0.0968
     28 N           6.2892   -2.5924   19.1197 N.3     1  UNL1       -0.2689
     29 C           7.7680   -2.3412   19.1091 C.3     1  UNL1        0.0748
     30 C           8.3978   -3.2378   20.1335 C.3     1  UNL1        0.0480
     31 C           7.3083   -4.0430   20.7773 C.3     1  UNL1        0.1278
     32 O           7.4899   -5.0674   21.8580 O.3     1  UNL1       -0.3830
     33 C           6.0051   -3.6442   20.1507 C.3     1  UNL1        0.1017
     34 H           6.6275   -5.4413   22.0973 H       1  UNL1        0.2104
@<TRIPOS>BOND
     1     1     2    1
     2     2     3   am
     3     3     4    2
     4     5     3    1
     5     5     6    1
     6     6     7    1
     7     7     8   ar
     8     8     9   ar
     9     9    14    1
    10    14    16    1
    11    16    17    1
    12    16    18    2
    13    16    19    2
    14     9    10   ar
    15    10    11   ar
    16    11    12   ar
    17    12    13    1
    18     2    20    1
    19    20    27    1
    20    27    28    1
    21    28    29    1
    22    29    30    1
    23    30    31    1
    24    31    32    1
    25    31    33    1
    26    20    21    1
    27    21    22   ar
    28    22    23   ar
    29    23    24   ar
    30    24    25   ar
    31    25    26   ar
    32    13     5    1
    33    33    28    1
    34    26    21   ar
    35    12     7   ar
    36    14    15    1
    37    32    34    1
@<TRIPOS>MOLECULE
*****
 34 37 0 0 0
SMALL
GASTEIGER

@<TRIPOS>ATOM
      1 C           6.6089   -1.8909   27.8205 C.3     1  UNL1        0.1153
      2 N           6.3829   -2.1982   26.3698 N.am    1  UNL1       -0.2714
      3 C           5.0552   -1.9011   25.7382 C.2     1  UNL1        0.2665
      4 O           3.9536   -1.2967   26.5573 O.2     1  UNL1       -0.2710
      5 C           4.8293   -2.2084   24.2875 C.3     1  UNL1        0.2456
      6 C           4.5598   -1.2053   23.2053 C.3     1  UNL1        0.0826
      7 C           4.3971   -1.9496   21.9132 C.ar    1  UNL1        0.0172
      8 C           4.1169   -1.4841   20.5151 C.ar    1  UNL1        0.0147
      9 C           4.0057   -2.4819   19.4006 C.ar    1  UNL1        0.0643
     10 C           4.1745   -3.9451   19.6843 C.ar    1  UNL1        0.0189
     11 C           4.4546   -4.4106   21.0824 C.ar    1  UNL1        0.0379
     12 C           4.5659   -3.4129   22.1969 C.ar    1  UNL1        0.1353
     13 O           4.8330   -3.5728   23.6642 O.3     1  UNL1       -0.4699
     14 N           3.7255   -2.0164   18.0024 N.pl3   1  UNL1       -0.2187
     15 H           3.0135   -2.4447   17.4744 H       1  UNL1        0.1734
     16 S           4.5303   -0.8984   17.4088 S.O2    1  UNL1        0.0558
     17 C           5.3351    0.2197   16.8152 C.3     1  UNL1        0.1996
     18 O           3.3193   -0.0135   17.4336 O.2     1  UNL1       -0.1544
     19 O           5.7412   -1.7832   17.3839 O.2     1  UNL1       -0.1544
     20 C           7.4847   -2.8026   25.5507 C.3     1  UNL1        0.1139
     21 C           7.5775   -4.2923   25.4012 C.ar    1  UNL1       -0.0029
     22 C           6.9733   -5.1894   26.4405 C.ar    1  UNL1       -0.0026
     23 C           7.0661   -6.6790   26.2911 C.ar    1  UNL1       -0.0003
     24 C           7.7631   -7.2716   25.1024 C.ar    1  UNL1       -0.0000
     25 C           8.3673   -6.3745   24.0631 C.ar    1  UNL1       -0.0003
     26 C           8.2745   -4.8848   24.2125 C.ar    1  UNL1       -0.0026
     27 C           8.4936   -1.9174   24.8811 C.3     1  UNL1        0.0968
     28 N           8.1724   -1.2774   23.5631 N.3     1  UNL1       -0.2689
     29 C           7.8672    0.1740   23.3388 C.3     1  UNL1        0.0748
     30 C           7.6061    0.3720   21.8751 C.3     1  UNL1        0.0480
     31 C           7.7499   -0.9570   21.1947 C.3     1  UNL1        0.1278
     32 O           7.5744   -1.2205   19.7284 O.3     1  UNL1       -0.3830
     33 C           8.0998   -1.9764   22.2379 C.3     1  UNL1        0.1017
     34 H           7.7227   -2.1621   19.5491 H       1  UNL1        0.2104
@<TRIPOS>BOND
     1     1     2    1
     2     2     3   am
     3     3     4    2
     4     5     3    1
     5     5     6    1
     6     6     7    1
     7     7     8   ar
     8     8     9   ar
     9     9    14    1
    10    14    16    1
    11    16    17    1
    12    16    18    2
    13    16    19    2
    14     9    10   ar
    15    10    11   ar
    16    11    12   ar
    17    12    13    1
    18     2    20    1
    19    20    27    1
    20    27    28    1
    21    28    29    1
    22    29    30    1
    23    30    31    1
    24    31    32    1
    25    31    33    1
    26    20    21    1
    27    21    22   ar
    28    22    23   ar
    29    23    24   ar
    30    24    25   ar
    31    25    26   ar
    32    13     5    1
    33    33    28    1
    34    26    21   ar
    35    12     7   ar
    36    14    15    1
    37    32    34    1
@<TRIPOS>MOLECULE
*****
 34 37 0 0 0
SMALL
GASTEIGER

@<TRIPOS>ATOM
      1 C           6.1455   -3.5879   19.8666 C.3     1  UNL1        0.1153
      2 N           5.2248   -2.4055   19.9312 N.am    1  UNL1       -0.2714
      3 C           3.7572   -2.5829   19.6770 C.2     1  UNL1        0.2665
      4 O           3.2104   -3.9428   19.3583 O.2     1  UNL1       -0.2710
      5 C           2.8365   -1.4005   19.7416 C.3     1  UNL1        0.2456
      6 C           2.0660   -0.9477   20.9463 C.3     1  UNL1        0.0826
      7 C           1.2780    0.2694   20.5620 C.ar    1  UNL1        0.0172
      8 C           0.3389    1.1436   21.3391 C.ar    1  UNL1        0.0147
      9 C          -0.3167    2.3174   20.6739 C.ar    1  UNL1        0.0643
     10 C          -0.0332    2.6168   19.2317 C.ar    1  UNL1        0.0189
     11 C           0.9058    1.7426   18.4546 C.ar    1  UNL1        0.0379
     12 C           1.5614    0.5689   19.1198 C.ar    1  UNL1        0.1353
     13 O           2.5247   -0.4632   18.6128 O.3     1  UNL1       -0.4699
     14 N          -1.2558    3.1917   21.4509 N.pl3   1  UNL1       -0.2187
     15 H          -1.1828    3.2434   22.4313 H       1  UNL1        0.1734
     16 S          -2.3062    3.9872   20.7341 S.O2    1  UNL1        0.0558
     17 C          -3.3567    4.7827   20.0172 C.3     1  UNL1        0.1996
     18 O          -3.1733    2.7661   20.6497 O.2     1  UNL1       -0.1544
     19 O          -1.4391    5.2082   20.8185 O.2     1  UNL1       -0.1544
     20 C           5.7718   -1.0455   20.2500 C.3     1  UNL1        0.1139
     21 C           5.8111    0.0145   19.1895 C.ar    1  UNL1       -0.0029
     22 C           5.3430    1.4051   19.5013 C.ar    1  UNL1       -0.0026
     23 C           5.3824    2.4652   18.4408 C.ar    1  UNL1       -0.0003
     24 C           5.8898    2.1347   17.0685 C.ar    1  UNL1       -0.0000
     25 C           6.3579    0.7441   16.7566 C.ar    1  UNL1       -0.0003
     26 C           6.3186   -0.3160   17.8171 C.ar    1  UNL1       -0.0026
     27 C           6.2794   -0.7458   21.6293 C.3     1  UNL1        0.0968
     28 N           5.3146   -0.6027   22.7689 N.3     1  UNL1       -0.2689
     29 C           4.4042    0.5644   23.0120 C.3     1  UNL1        0.0748
     30 C           3.6177    0.2869   24.2588 C.3     1  UNL1        0.0480
     31 C           4.0421   -1.0517   24.7862 C.3     1  UNL1        0.1278
     32 O           3.5110   -1.7227   26.0182 O.3     1  UNL1       -0.3830
     33 C           5.0908   -1.6015   23.8654 C.3     1  UNL1        0.1017
     34 H           3.9516   -2.5789   26.1355 H       1  UNL1        0.2104
@<TRIPOS>BOND
     1     1     2    1
     2     2     3   am
     3     3     4    2
     4     5     3    1
     5     5     6    1
     6     6     7    1
     7     7     8   ar
     8     8     9   ar
     9     9    14    1
    10    14    16    1
    11    16    17    1
    12    16    18    2
    13    16    19    2
    14     9    10   ar
    15    10    11   ar
    16    11    12   ar
    17    12    13    1
    18     2    20    1
    19    20    27    1
    20    27    28    1
    21    28    29    1
    22    29    30    1
    23    30    31    1
    24    31    32    1
    25    31    33    1
    26    20    21    1
    27    21    22   ar
    28    22    23   ar
    29    23    24   ar
    30    24    25   ar
    31    25    26   ar
    32    13     5    1
    33    33    28    1
    34    26    21   ar
    35    12     7   ar
    36    14    15    1
    37    32    34    1
@<TRIPOS>MOLECULE
*****
 34 37 0 0 0
SMALL
GASTEIGER

@<TRIPOS>ATOM
      1 C         -10.4466   -6.9787   18.9142 C.3     1  UNL1        0.1153
      2 N         -11.3143   -5.7772   18.6825 N.am    1  UNL1       -0.2714
      3 C         -10.7278   -4.5324   18.0854 C.2     1  UNL1        0.2665
      4 O          -9.2736   -4.4891   17.7201 O.2     1  UNL1       -0.2710
      5 C         -11.5955   -3.3310   17.8537 C.3     1  UNL1        0.2456
      6 C         -11.4377   -1.9902   18.5074 C.3     1  UNL1        0.0826
      7 C         -12.5180   -1.0899   17.9853 C.ar    1  UNL1        0.0172
      8 C         -12.8567    0.3427   18.2728 C.ar    1  UNL1        0.0147
      9 C         -14.0208    0.9910   17.5839 C.ar    1  UNL1        0.0643
     10 C         -14.8462    0.2065   16.6076 C.ar    1  UNL1        0.0189
     11 C         -14.5075   -1.2261   16.3200 C.ar    1  UNL1        0.0379
     12 C         -13.3434   -1.8744   17.0089 C.ar    1  UNL1        0.1353
     13 O         -12.7732   -3.2594   16.9276 O.3     1  UNL1       -0.4699
     14 N         -14.3595    2.4237   17.8714 N.pl3   1  UNL1       -0.2187
     15 H         -13.6695    3.1202   17.7820 H       1  UNL1        0.1734
     16 S         -15.7496    2.7952   18.2953 S.O2    1  UNL1        0.0558
     17 C         -17.1397    3.1667   18.7191 C.3     1  UNL1        0.1996
     18 O         -15.9609    3.4974   16.9867 O.2     1  UNL1       -0.1544
     19 O         -15.5383    2.0931   19.6038 O.2     1  UNL1       -0.1544
     20 C         -12.7685   -5.8206   19.0478 C.3     1  UNL1        0.1139
     21 C         -13.7136   -6.6815   18.2633 C.ar    1  UNL1       -0.0029
     22 C         -13.7698   -6.5647   16.7688 C.ar    1  UNL1       -0.0026
     23 C         -14.7149   -7.4256   15.9843 C.ar    1  UNL1       -0.0003
     24 C         -15.6038   -8.4034   16.6940 C.ar    1  UNL1       -0.0000
     25 C         -15.5476   -8.5203   18.1884 C.ar    1  UNL1       -0.0003
     26 C         -14.6025   -7.6593   18.9731 C.ar    1  UNL1       -0.0026
     27 C         -13.2776   -5.0030   20.1978 C.3     1  UNL1        0.0968
     28 N         -14.3299   -3.9591   19.9680 N.3     1  UNL1       -0.2689
     29 C         -15.5299   -4.0976   19.0788 C.3     1  UNL1        0.0748
     30 C         -16.3086   -2.8175   19.1484 C.3     1  UNL1        0.0480
     31 C         -15.5899   -1.8878   20.0806 C.3     1  UNL1        0.1278
     32 O         -16.0188   -0.4967   20.4427 O.3     1  UNL1       -0.3830
     33 C         -14.3670   -2.5933   20.5872 C.3     1  UNL1        0.1017
     34 H         -15.3796   -0.1124   21.0629 H       1  UNL1        0.2104
@<TRIPOS>BOND
     1     1     2    1
     2     2     3   am
     3     3     4    2
     4     5     3    1
     5     5     6    1
     6     6     7    1
     7     7     8   ar
     8     8     9   ar
     9     9    14    1
    10    14    16    1
    11    16    17    1
    12    16    18    2
    13    16    19    2
    14     9    10   ar
    15    10    11   ar
    16    11    12   ar
    17    12    13    1
    18     2    20    1
    19    20    27    1
    20    27    28    1
    21    28    29    1
    22    29    30    1
    23    30    31    1
    24    31    32    1
    25    31    33    1
    26    20    21    1
    27    21    22   ar
    28    22    23   ar
    29    23    24   ar
    30    24    25   ar
    31    25    26   ar
    32    13     5    1
    33    33    28    1
    34    26    21   ar
    35    12     7   ar
    36    14    15    1
    37    32    34    1
