@<TRIPOS>MOLECULE
*****
 15 16 0 0 0
SMALL
GASTEIGER

@<TRIPOS>ATOM
      1 C         -11.2885  -17.2175   22.7843 C.ar    1  UNL1        0.1390
      2 C         -11.2738  -18.3627   23.7530 C.ar    1  UNL1        0.0375
      3 C         -10.1519  -18.1356   24.7223 C.ar    1  UNL1        0.0404
      4 C          -9.4731  -16.8499   24.3528 C.ar    1  UNL1        0.1464
      5 O         -10.1756  -16.2825   23.1550 O.2     1  UNL1       -0.4563
      6 C          -8.2982  -16.2390   25.0573 C.ar    1  UNL1        0.0537
      7 C          -8.2413  -16.2354   26.5562 C.ar    1  UNL1        0.0062
      8 C          -7.0664  -15.6245   27.2606 C.ar    1  UNL1        0.0208
      9 C          -5.9483  -15.0172   26.4662 C.ar    1  UNL1        0.0989
     10 N          -6.0052  -15.0208   24.9673 N.ar    1  UNL1       -0.2422
     11 C          -7.1801  -15.6317   24.2629 C.ar    1  UNL1        0.1019
     12 C         -12.2477  -17.0386   21.6450 C.3     1  UNL1        0.1377
     13 C         -11.9254  -15.7950   19.3868 C.3     1  UNL1        0.0900
     14 N         -11.7404  -17.0192   20.2335 N.3     1  UNL1       -0.2639
     15 C         -11.0481  -18.2241   19.6689 C.3     1  UNL1        0.0900
@<TRIPOS>BOND
     1    13    14    1
     2    14    15    1
     3    14    12    1
     4    12     1    1
     5     1     2   ar
     6     2     3   ar
     7     3     4   ar
     8     4     6    1
     9     6     7   ar
    10     7     8   ar
    11     8     9   ar
    12     9    10   ar
    13    10    11   ar
    14     4     5   ar
    15     5     1   ar
    16    11     6   ar
@<TRIPOS>MOLECULE
*****
 15 16 0 0 0
SMALL
GASTEIGER

@<TRIPOS>ATOM
      1 C          -4.0472  -19.3077   19.7322 C.ar    1  UNL1        0.1390
      2 C          -4.3447  -20.7358   20.0817 C.ar    1  UNL1        0.0375
      3 C          -5.8138  -20.8477   20.3629 C.ar    1  UNL1        0.0404
      4 C          -6.4243  -19.4889   20.1872 C.ar    1  UNL1        0.1464
      5 O          -5.3324  -18.5371   19.7974 O.2     1  UNL1       -0.4563
      6 C          -7.8724  -19.1426   20.3693 C.ar    1  UNL1        0.0537
      7 C          -8.8891  -19.6237   19.3770 C.ar    1  UNL1        0.0062
      8 C         -10.3372  -19.2774   19.5592 C.ar    1  UNL1        0.0208
      9 C         -10.7685  -18.4500   20.7336 C.ar    1  UNL1        0.0989
     10 N          -9.7517  -17.9689   21.7259 N.ar    1  UNL1       -0.2422
     11 C          -8.3037  -18.3152   21.5438 C.ar    1  UNL1        0.1019
     12 C          -2.7007  -18.7484   19.3794 C.3     1  UNL1        0.1377
     13 C          -0.3976  -17.7957   20.1129 C.3     1  UNL1        0.0900
     14 N          -1.7412  -18.3618   20.4656 N.3     1  UNL1       -0.2639
     15 C          -2.1253  -18.5411   21.9044 C.3     1  UNL1        0.0900
@<TRIPOS>BOND
     1    13    14    1
     2    14    15    1
     3    14    12    1
     4    12     1    1
     5     1     2   ar
     6     2     3   ar
     7     3     4   ar
     8     4     6    1
     9     6     7   ar
    10     7     8   ar
    11     8     9   ar
    12     9    10   ar
    13    10    11   ar
    14     4     5   ar
    15     5     1   ar
    16    11     6   ar
@<TRIPOS>MOLECULE
*****
 15 16 0 0 0
SMALL
GASTEIGER

@<TRIPOS>ATOM
      1 C          -9.1621  -17.4973   21.9359 C.ar    1  UNL1        0.1390
      2 C          -9.4123  -18.8492   22.5359 C.ar    1  UNL1        0.0375
      3 C          -8.1354  -19.6327   22.4619 C.ar    1  UNL1        0.0404
      4 C          -7.0960  -18.7651   21.8162 C.ar    1  UNL1        0.1464
      5 O          -7.7305  -17.4454   21.4911 O.2     1  UNL1       -0.4563
      6 C          -5.6720  -19.1497   21.5434 C.ar    1  UNL1        0.0537
      7 C          -5.3369  -19.9812   20.3408 C.ar    1  UNL1        0.0062
      8 C          -3.9129  -20.3658   20.0681 C.ar    1  UNL1        0.0208
      9 C          -2.8241  -19.9189   20.9980 C.ar    1  UNL1        0.0989
     10 N          -3.1592  -19.0874   22.2006 N.ar    1  UNL1       -0.2422
     11 C          -4.5831  -18.7028   22.4733 C.ar    1  UNL1        0.1019
     12 C         -10.1671  -16.3915   21.8039 C.3     1  UNL1        0.1377
     13 C         -11.4398  -15.8710   19.5996 C.3     1  UNL1        0.0900
     14 N         -11.3686  -16.5712   20.9242 N.3     1  UNL1       -0.2639
     15 C         -12.4991  -17.4509   21.3692 C.3     1  UNL1        0.0900
@<TRIPOS>BOND
     1    13    14    1
     2    14    15    1
     3    14    12    1
     4    12     1    1
     5     1     2   ar
     6     2     3   ar
     7     3     4   ar
     8     4     6    1
     9     6     7   ar
    10     7     8   ar
    11     8     9   ar
    12     9    10   ar
    13    10    11   ar
    14     4     5   ar
    15     5     1   ar
    16    11     6   ar
@<TRIPOS>MOLECULE
*****
 15 16 0 0 0
SMALL
GASTEIGER

@<TRIPOS>ATOM
      1 C          -9.0935  -17.4885   21.9352 C.ar    1  UNL1        0.1390
      2 C          -9.3519  -18.8470   22.5166 C.ar    1  UNL1        0.0375
      3 C          -8.0768  -19.6333   22.4415 C.ar    1  UNL1        0.0404
      4 C          -7.0304  -18.7610   21.8138 C.ar    1  UNL1        0.1464
      5 O          -7.6588  -17.4354   21.5008 O.2     1  UNL1       -0.4563
      6 C          -5.6057  -19.1465   21.5460 C.ar    1  UNL1        0.0537
      7 C          -4.5087  -18.6200   22.4231 C.ar    1  UNL1        0.0062
      8 C          -3.0841  -19.0056   22.1553 C.ar    1  UNL1        0.0208
      9 C          -2.7564  -19.9176   21.0104 C.ar    1  UNL1        0.0989
     10 N          -3.8534  -20.4441   20.1333 N.ar    1  UNL1       -0.2422
     11 C          -5.2780  -20.0585   20.4011 C.ar    1  UNL1        0.1019
     12 C         -10.0943  -16.3782   21.8101 C.3     1  UNL1        0.1377
     13 C         -12.4460  -17.4053   21.4044 C.3     1  UNL1        0.0900
     14 N         -11.3030  -16.5525   20.9391 N.3     1  UNL1       -0.2639
     15 C         -11.3688  -15.8741   19.6030 C.3     1  UNL1        0.0900
@<TRIPOS>BOND
     1    13    14    1
     2    14    15    1
     3    14    12    1
     4    12     1    1
     5     1     2   ar
     6     2     3   ar
     7     3     4   ar
     8     4     6    1
     9     6     7   ar
    10     7     8   ar
    11     8     9   ar
    12     9    10   ar
    13    10    11   ar
    14     4     5   ar
    15     5     1   ar
    16    11     6   ar
@<TRIPOS>MOLECULE
*****
 15 16 0 0 0
SMALL
GASTEIGER

@<TRIPOS>ATOM
      1 C          -9.9450  -19.2186   20.8738 C.ar    1  UNL1        0.1390
      2 C          -9.6394  -19.5905   19.4531 C.ar    1  UNL1        0.0375
      3 C          -8.1525  -19.7394   19.3225 C.ar    1  UNL1        0.0404
      4 C          -7.5392  -19.4595   20.6625 C.ar    1  UNL1        0.1464
      5 O          -8.6470  -19.1377   21.6212 O.2     1  UNL1       -0.4563
      6 C          -6.0750  -19.4953   20.9868 C.ar    1  UNL1        0.0537
      7 C          -5.1184  -20.1861   20.0607 C.ar    1  UNL1        0.0062
      8 C          -3.6544  -20.2218   20.3850 C.ar    1  UNL1        0.0208
      9 C          -3.1469  -19.5666   21.6353 C.ar    1  UNL1        0.0989
     10 N          -4.1035  -18.8758   22.5613 N.ar    1  UNL1       -0.2422
     11 C          -5.5676  -18.8401   22.2371 C.ar    1  UNL1        0.1019
     12 C         -11.3091  -18.9712   21.4465 C.3     1  UNL1        0.1377
     13 C         -11.6589  -16.6486   20.3360 C.3     1  UNL1        0.0900
     14 N         -11.8596  -17.5768   21.4972 N.3     1  UNL1       -0.2639
     15 C         -12.6107  -17.1106   22.7090 C.3     1  UNL1        0.0900
@<TRIPOS>BOND
     1    13    14    1
     2    14    15    1
     3    14    12    1
     4    12     1    1
     5     1     2   ar
     6     2     3   ar
     7     3     4   ar
     8     4     6    1
     9     6     7   ar
    10     7     8   ar
    11     8     9   ar
    12     9    10   ar
    13    10    11   ar
    14     4     5   ar
    15     5     1   ar
    16    11     6   ar
@<TRIPOS>MOLECULE
*****
 15 16 0 0 0
SMALL
GASTEIGER

@<TRIPOS>ATOM
      1 C          -6.3598  -15.7907   23.8681 C.ar    1  UNL1        0.1390
      2 C          -7.1202  -15.5485   25.1383 C.ar    1  UNL1        0.0375
      3 C          -8.5687  -15.8335   24.8728 C.ar    1  UNL1        0.0404
      4 C          -8.7036  -16.2517   23.4386 C.ar    1  UNL1        0.1464
      5 O          -7.3384  -16.2253   22.8177 O.2     1  UNL1       -0.4563
      6 C          -9.9797  -16.6300   22.7467 C.ar    1  UNL1        0.0537
      7 C         -10.9497  -17.5574   23.4168 C.ar    1  UNL1        0.0062
      8 C         -12.2257  -17.9357   22.7250 C.ar    1  UNL1        0.0208
      9 C         -12.5317  -17.3865   21.3631 C.ar    1  UNL1        0.0989
     10 N         -11.5617  -16.4592   20.6930 N.ar    1  UNL1       -0.2422
     11 C         -10.2857  -16.0809   21.3848 C.ar    1  UNL1        0.1019
     12 C          -4.8805  -15.6270   23.6813 C.3     1  UNL1        0.1377
     13 C          -4.5827  -18.1184   23.0073 C.3     1  UNL1        0.0900
     14 N          -4.0869  -16.7028   23.0009 N.3     1  UNL1       -0.2639
     15 C          -2.7974  -16.3628   22.3141 C.3     1  UNL1        0.0900
@<TRIPOS>BOND
     1    13    14    1
     2    14    15    1
     3    14    12    1
     4    12     1    1
     5     1     2   ar
     6     2     3   ar
     7     3     4   ar
     8     4     6    1
     9     6     7   ar
    10     7     8   ar
    11     8     9   ar
    12     9    10   ar
    13    10    11   ar
    14     4     5   ar
    15     5     1   ar
    16    11     6   ar
@<TRIPOS>MOLECULE
*****
 15 16 0 0 0
SMALL
GASTEIGER

@<TRIPOS>ATOM
      1 C          -7.3944  -18.6297   22.3355 C.ar    1  UNL1        0.1390
      2 C          -7.2907  -20.1045   22.0818 C.ar    1  UNL1        0.0375
      3 C          -5.9270  -20.3839   21.5230 C.ar    1  UNL1        0.0404
      4 C          -5.1880  -19.0818   21.4312 C.ar    1  UNL1        0.1464
      5 O          -6.0949  -17.9977   21.9333 O.2     1  UNL1       -0.4563
      6 C          -3.7878  -18.8964   20.9259 C.ar    1  UNL1        0.0537
      7 C          -3.5497  -18.5509   19.4858 C.ar    1  UNL1        0.0062
      8 C          -2.1496  -18.3655   18.9806 C.ar    1  UNL1        0.0208
      9 C          -0.9876  -18.5256   19.9155 C.ar    1  UNL1        0.0989
     10 N          -1.2256  -18.8711   21.3556 N.ar    1  UNL1       -0.2422
     11 C          -2.6258  -19.0565   21.8608 C.ar    1  UNL1        0.1019
     12 C          -8.5882  -17.9129   22.8933 C.3     1  UNL1        0.1377
     13 C          -7.9718  -15.3909   22.7949 C.3     1  UNL1        0.0900
     14 N          -8.9007  -16.5157   22.4458 N.3     1  UNL1       -0.2639
     15 C         -10.1422  -16.2434   21.6492 C.3     1  UNL1        0.0900
@<TRIPOS>BOND
     1    13    14    1
     2    14    15    1
     3    14    12    1
     4    12     1    1
     5     1     2   ar
     6     2     3   ar
     7     3     4   ar
     8     4     6    1
     9     6     7   ar
    10     7     8   ar
    11     8     9   ar
    12     9    10   ar
    13    10    11   ar
    14     4     5   ar
    15     5     1   ar
    16    11     6   ar
@<TRIPOS>MOLECULE
*****
 15 16 0 0 0
SMALL
GASTEIGER

@<TRIPOS>ATOM
      1 C          -4.9591  -16.8869   23.5025 C.ar    1  UNL1        0.1390
      2 C          -5.2712  -15.6849   24.3439 C.ar    1  UNL1        0.0375
      3 C          -6.7496  -15.4414   24.2740 C.ar    1  UNL1        0.0404
      4 C          -7.3513  -16.4930   23.3895 C.ar    1  UNL1        0.1464
      5 O          -6.2447  -17.3863   22.9127 O.2     1  UNL1       -0.4563
      6 C          -8.8045  -16.6275   23.0427 C.ar    1  UNL1        0.0537
      7 C          -9.3319  -16.0242   21.7747 C.ar    1  UNL1        0.0062
      8 C         -10.7850  -16.1588   21.4279 C.ar    1  UNL1        0.0208
      9 C         -11.7107  -16.8965   22.3491 C.ar    1  UNL1        0.0989
     10 N         -11.1833  -17.4998   23.6172 N.ar    1  UNL1       -0.2422
     11 C          -9.7302  -17.3653   23.9639 C.ar    1  UNL1        0.1019
     12 C          -3.6000  -17.4846   23.2886 C.3     1  UNL1        0.1377
     13 C          -3.1746  -18.4448   20.9123 C.3     1  UNL1        0.0900
     14 N          -2.9392  -17.3835   21.9458 N.3     1  UNL1       -0.2639
     15 C          -2.0429  -16.2211   21.6367 C.3     1  UNL1        0.0900
@<TRIPOS>BOND
     1    13    14    1
     2    14    15    1
     3    14    12    1
     4    12     1    1
     5     1     2   ar
     6     2     3   ar
     7     3     4   ar
     8     4     6    1
     9     6     7   ar
    10     7     8   ar
    11     8     9   ar
    12     9    10   ar
    13    10    11   ar
    14     4     5   ar
    15     5     1   ar
    16    11     6   ar
@<TRIPOS>MOLECULE
*****
 15 16 0 0 0
SMALL
GASTEIGER

@<TRIPOS>ATOM
      1 C         -12.6805   -5.4147   19.2227 C.ar    1  UNL1        0.1390
      2 C         -13.9230   -4.6265   19.5146 C.ar    1  UNL1        0.0375
      3 C         -15.0886   -5.5700   19.4826 C.ar    1  UNL1        0.0404
      4 C         -14.5665   -6.9413   19.1710 C.ar    1  UNL1        0.1464
      5 O         -13.0783   -6.8453   19.0103 O.2     1  UNL1       -0.4563
      6 C         -15.3885   -8.1895   19.0426 C.ar    1  UNL1        0.0537
      7 C         -16.7332   -8.2731   19.7018 C.ar    1  UNL1        0.0062
      8 C         -17.5551   -9.5213   19.5734 C.ar    1  UNL1        0.0208
      9 C         -17.0323  -10.6858   18.7857 C.ar    1  UNL1        0.0989
     10 N         -15.6876  -10.6022   18.1264 N.ar    1  UNL1       -0.2422
     11 C         -14.8657   -9.3541   18.2549 C.ar    1  UNL1        0.1019
     12 C         -11.2852   -4.8681   19.1550 C.3     1  UNL1        0.1377
     13 C          -9.7095   -5.1000   17.1024 C.3     1  UNL1        0.0900
     14 N         -10.2203   -5.6202   18.4133 N.3     1  UNL1       -0.2639
     15 C          -9.6661   -6.8926   18.9825 C.3     1  UNL1        0.0900
@<TRIPOS>BOND
     1    13    14    1
     2    14    15    1
     3    14    12    1
     4    12     1    1
     5     1     2   ar
     6     2     3   ar
     7     3     4   ar
     8     4     6    1
     9     6     7   ar
    10     7     8   ar
    11     8     9   ar
    12     9    10   ar
    13    10    11   ar
    14     4     5   ar
    15     5     1   ar
    16    11     6   ar
