@<TRIPOS>MOLECULE
*****
 47 53 0 0 0
SMALL
GASTEIGER

@<TRIPOS>ATOM
      1 N           5.9462   -2.4813   27.8339 N.ar    1  UNL1       -0.2359
      2 N           5.8808   -1.5206   28.9840 N.ar    1  UNL1       -0.1682
      3 C           6.3649   -2.2337   30.2116 C.ar    1  UNL1        0.1030
      4 C           6.7296   -3.6351   29.8203 C.ar    1  UNL1        0.0857
      5 C           7.2638   -4.7916   30.6122 C.ar    1  UNL1        0.1316
      6 N           7.5226   -4.6385   32.0817 N.pl3   1  UNL1       -0.3425
      7 N           7.5393   -6.1011   29.9345 N.ar    1  UNL1       -0.2093
      8 C           7.2805   -6.2541   28.4650 C.ar    1  UNL1        0.2014
      9 N           6.7463   -5.0976   27.6731 N.ar    1  UNL1       -0.2050
     10 C           6.4708   -3.7881   28.3507 C.ar    1  UNL1        0.1652
     11 H           7.3418   -3.7790   32.5265 H       1  UNL1        0.1437
     12 H           7.8732   -5.3976   32.6015 H       1  UNL1        0.1437
     13 C           6.4666   -1.6482   31.5889 C.2     1  UNL1        0.0059
     14 C           7.8027   -1.2366   32.1322 C.2     1  UNL1        0.0017
     15 C           7.9043   -0.6511   33.5095 C.2     1  UNL1        0.0499
     16 C           6.6697   -0.4772   34.3435 C.2     1  UNL1        0.2317
     17 N           6.4605    0.0669   35.7256 N.2     1  UNL1       -0.0347
     18 C           4.9951   -0.0085   36.0365 C.2     1  UNL1        0.3557
     19 N           4.2986   -0.5992   34.8466 N.2     1  UNL1       -0.0385
     20 C           5.3336   -0.8889   33.8003 C.2     1  UNL1        0.2175
     21 C           5.2319   -1.4744   32.4230 C.3     1  UNL1        0.1056
     22 C           4.3410    0.4299   37.3131 C.3     1  UNL1        0.1531
     23 C           3.4260    1.6185   37.3175 C.ar    1  UNL1        0.0242
     24 C           3.4858    2.6151   36.1980 C.ar    1  UNL1       -0.0007
     25 C           2.5709    3.8037   36.2023 C.ar    1  UNL1       -0.0001
     26 C           1.5961    3.9959   37.3261 C.ar    1  UNL1        0.0031
     27 C           1.5364    2.9993   38.4456 C.ar    1  UNL1        0.0366
     28 C           2.4513    1.8107   38.4413 C.ar    1  UNL1        0.1353
     29 O           2.3915    0.8142   39.5608 O.3     1  UNL1       -0.4717
     30 C           1.2211   -0.1172   39.6742 C.3     1  UNL1        0.2525
     31 C           4.7745   -1.5981   23.5798 C.3     1  UNL1        0.0577
     32 C           3.8921   -1.1538   24.7084 C.3     1  UNL1        0.0179
     33 C           4.2826   -1.4482   26.1265 C.3     1  UNL1        0.0258
     34 C           5.5557   -2.1870   26.4159 C.3     1  UNL1        0.1069
     35 C           6.4380   -2.6312   25.2872 C.3     1  UNL1        0.0258
     36 C           6.0475   -2.3368   23.8692 C.3     1  UNL1        0.0179
     37 N           3.6029   -0.7149   19.3258 N.3     1  UNL1       -0.2702
     38 C           3.6050   -2.1294   19.8248 C.3     1  UNL1        0.0897
     39 C           3.9955   -2.4239   21.2428 C.3     1  UNL1        0.0896
     40 N           4.3839   -1.3037   22.1618 N.3     1  UNL1       -0.2716
     41 C           4.3819    0.1108   21.6627 C.3     1  UNL1        0.0896
     42 C           3.9913    0.4053   20.2447 C.3     1  UNL1        0.0897
     43 C           3.2123   -0.4205   17.9077 C.3     1  UNL1        0.0748
     44 C           4.2432   -0.4737   16.8194 C.3     1  UNL1        0.0494
     45 C           5.6673   -0.1083   17.1167 C.3     1  UNL1        0.1437
     46 C           7.0015   -1.9442   18.3814 C.3     1  UNL1        0.1741
     47 O           6.7275   -1.1694   17.1265 O.3     1  UNL1       -0.3511
@<TRIPOS>BOND
     1    46    47    1
     2    47    45    1
     3    45    44    1
     4    44    43    1
     5    43    37    1
     6    37    38    1
     7    38    39    1
     8    39    40    1
     9    31    40    1
    10    31    32    1
    11    32    33    1
    12    33    34    1
    13    34     1    1
    14     1     2   ar
    15     2     3   ar
    16     3    13    1
    17    13    14    2
    18    14    15    1
    19    15    16    2
    20    16    17    1
    21    17    18    2
    22    18    22    1
    23    22    23    1
    24    23    24   ar
    25    24    25   ar
    26    25    26   ar
    27    26    27   ar
    28    27    28   ar
    29    28    29    1
    30    29    30    1
    31    18    19    1
    32    19    20    2
    33    20    21    1
    34     3     4   ar
    35     4     5   ar
    36     5     6    1
    37     5     7   ar
    38     7     8   ar
    39     8     9   ar
    40     9    10   ar
    41    34    35    1
    42    35    36    1
    43    40    41    1
    44    41    42    1
    45    42    37    1
    46    36    31    1
    47    10     1   ar
    48    21    13    1
    49    10     4   ar
    50    20    16    1
    51    28    23   ar
    52     6    11    1
    53     6    12    1
@<TRIPOS>MOLECULE
*****
 47 53 0 0 0
SMALL
GASTEIGER

@<TRIPOS>ATOM
      1 N           5.9789   -2.2123   29.9078 N.ar    1  UNL1       -0.2359
      2 N           5.9164   -1.6523   28.5176 N.ar    1  UNL1       -0.1682
      3 C           6.4567   -2.6875   27.5762 C.ar    1  UNL1        0.1030
      4 C           6.8531   -3.8874   28.3845 C.ar    1  UNL1        0.0857
      5 C           7.4447   -5.2094   27.9945 C.ar    1  UNL1        0.1316
      6 N           7.7401   -5.5031   26.5535 N.pl3   1  UNL1       -0.3425
      7 N           7.7411   -6.2377   29.0455 N.ar    1  UNL1       -0.2093
      8 C           7.4458   -5.9440   30.4865 C.ar    1  UNL1        0.2014
      9 N           6.8541   -4.6219   30.8765 N.ar    1  UNL1       -0.2050
     10 C           6.5577   -3.5936   29.8255 C.ar    1  UNL1        0.1652
     11 H           7.5455   -4.8282   25.8636 H       1  UNL1        0.1437
     12 H           8.1284   -6.3708   26.2975 H       1  UNL1        0.1437
     13 C           6.5791   -2.5475   26.0878 C.2     1  UNL1        0.0059
     14 C           7.8618   -2.0583   25.4834 C.2     1  UNL1        0.0017
     15 C           7.9842   -1.9183   23.9950 C.2     1  UNL1        0.0499
     16 C           6.8239   -2.2676   23.1109 C.2     1  UNL1        0.2317
     17 N           6.6504   -2.2314   21.6214 N.2     1  UNL1       -0.0347
     18 C           5.2604   -2.6983   21.3051 C.2     1  UNL1        0.3557
     19 N           4.5749   -3.0231   22.5992 N.2     1  UNL1       -0.0385
     20 C           5.5412   -2.7569   23.7152 C.2     1  UNL1        0.2175
     21 C           5.4188   -2.8969   25.2036 C.3     1  UNL1        0.1056
     22 C           4.6612   -2.8192   19.9354 C.3     1  UNL1        0.1531
     23 C           3.7322   -1.7571   19.4267 C.ar    1  UNL1        0.0242
     24 C           2.4972   -1.4065   20.2026 C.ar    1  UNL1       -0.0007
     25 C           1.5682   -0.3443   19.6939 C.ar    1  UNL1       -0.0001
     26 C           1.8741    0.3672   18.4094 C.ar    1  UNL1        0.0031
     27 C           3.1090    0.0166   17.6335 C.ar    1  UNL1        0.0366
     28 C           4.0381   -1.0455   18.1422 C.ar    1  UNL1        0.1353
     29 O           5.2729   -1.3960   17.3663 O.3     1  UNL1       -0.4717
     30 C           6.4994   -0.5402   17.4815 C.3     1  UNL1        0.2525
     31 C           4.6609   -0.1163   33.6654 C.3     1  UNL1        0.0577
     32 C           3.7078   -0.2668   32.5169 C.3     1  UNL1        0.0179
     33 C           4.1471   -0.9654   31.2644 C.3     1  UNL1        0.0258
     34 C           5.5396   -1.5136   31.1603 C.3     1  UNL1        0.1069
     35 C           6.4925   -1.3631   32.3088 C.3     1  UNL1        0.0258
     36 C           6.0532   -0.6644   33.5614 C.3     1  UNL1        0.0179
     37 N           3.3429    1.9797   37.4230 N.3     1  UNL1       -0.2702
     38 C           4.2019    0.7532   37.5104 C.3     1  UNL1        0.0897
     39 C           4.6413    0.0545   36.2578 C.3     1  UNL1        0.0896
     40 N           4.2216    0.5824   34.9180 N.3     1  UNL1       -0.2716
     41 C           3.3626    1.8089   34.8306 C.3     1  UNL1        0.0896
     42 C           2.9232    2.5077   36.0832 C.3     1  UNL1        0.0897
     43 C           2.9036    2.6784   38.6756 C.3     1  UNL1        0.0748
     44 C           1.4662    3.0695   38.8515 C.3     1  UNL1        0.0494
     45 C           0.5205    2.1493   39.5649 C.3     1  UNL1        0.1437
     46 C           1.2231   -0.3468   39.7248 C.3     1  UNL1        0.1741
     47 O           1.0544    0.9989   40.3657 O.3     1  UNL1       -0.3511
@<TRIPOS>BOND
     1    46    47    1
     2    47    45    1
     3    45    44    1
     4    44    43    1
     5    43    37    1
     6    37    38    1
     7    38    39    1
     8    39    40    1
     9    31    40    1
    10    31    32    1
    11    32    33    1
    12    33    34    1
    13    34     1    1
    14     1     2   ar
    15     2     3   ar
    16     3    13    1
    17    13    14    2
    18    14    15    1
    19    15    16    2
    20    16    17    1
    21    17    18    2
    22    18    22    1
    23    22    23    1
    24    23    24   ar
    25    24    25   ar
    26    25    26   ar
    27    26    27   ar
    28    27    28   ar
    29    28    29    1
    30    29    30    1
    31    18    19    1
    32    19    20    2
    33    20    21    1
    34     3     4   ar
    35     4     5   ar
    36     5     6    1
    37     5     7   ar
    38     7     8   ar
    39     8     9   ar
    40     9    10   ar
    41    34    35    1
    42    35    36    1
    43    40    41    1
    44    41    42    1
    45    42    37    1
    46    36    31    1
    47    10     1   ar
    48    21    13    1
    49    10     4   ar
    50    20    16    1
    51    28    23   ar
    52     6    11    1
    53     6    12    1
@<TRIPOS>MOLECULE
*****
 47 53 0 0 0
SMALL
GASTEIGER

@<TRIPOS>ATOM
      1 N          -0.3908    3.1598   26.5925 N.ar    1  UNL1       -0.2359
      2 N           0.5111    2.9297   25.4163 N.ar    1  UNL1       -0.1682
      3 C          -0.3224    3.0047   24.1714 C.ar    1  UNL1        0.1030
      4 C          -1.7394    3.2812   24.5783 C.ar    1  UNL1        0.0857
      5 C          -2.9967    3.4581   23.7796 C.ar    1  UNL1        0.1316
      6 N          -2.9544    3.3622   22.2833 N.pl3   1  UNL1       -0.3425
      7 N          -4.2962    3.7308   24.4772 N.ar    1  UNL1       -0.2093
      8 C          -4.3385    3.8267   25.9736 C.ar    1  UNL1        0.2014
      9 N          -3.0813    3.6498   26.7723 N.ar    1  UNL1       -0.2050
     10 C          -1.7817    3.3771   26.0746 C.ar    1  UNL1        0.1652
     11 H          -2.1014    3.1832   21.8254 H       1  UNL1        0.1437
     12 H          -3.7796    3.4783   21.7590 H       1  UNL1        0.1437
     13 C           0.1740    2.8334   22.7664 C.2     1  UNL1        0.0059
     14 C           0.1530    3.9941   21.8167 C.2     1  UNL1        0.0017
     15 C           0.6494    3.8228   20.4116 C.2     1  UNL1        0.0499
     16 C           1.1668    2.4905   19.9562 C.2     1  UNL1        0.2317
     17 N           1.7170    2.0236   18.6412 N.2     1  UNL1       -0.0347
     18 C           2.0780    0.5742   18.7781 C.2     1  UNL1        0.3557
     19 N           1.7510    0.1453   20.1778 N.2     1  UNL1       -0.0385
     20 C           1.1878    1.3297   20.9059 C.2     1  UNL1        0.2175
     21 C           0.6914    1.5010   22.3110 C.3     1  UNL1        0.1056
     22 C           2.6633   -0.2940   17.7041 C.3     1  UNL1        0.1531
     23 C           4.0753   -0.7860   17.8237 C.ar    1  UNL1        0.0242
     24 C           5.2054    0.0395   17.2841 C.ar    1  UNL1       -0.0007
     25 C           6.6174   -0.4525   17.4037 C.ar    1  UNL1       -0.0001
     26 C           6.8992   -1.7700   18.0630 C.ar    1  UNL1        0.0031
     27 C           5.7690   -2.5955   18.6027 C.ar    1  UNL1        0.0366
     28 C           4.3571   -2.1035   18.4830 C.ar    1  UNL1        0.1353
     29 O           3.2270   -2.9291   19.0227 O.3     1  UNL1       -0.4717
     30 C           3.3908   -4.4115   19.1828 C.3     1  UNL1        0.2525
     31 C           0.8569    3.1928   30.9160 C.3     1  UNL1        0.0577
     32 C           0.6828    4.4858   30.1758 C.3     1  UNL1        0.0179
     33 C           0.2669    4.4748   28.7346 C.3     1  UNL1        0.0258
     34 C           0.0251    3.1708   28.0337 C.3     1  UNL1        0.1069
     35 C           0.1992    1.8779   28.7739 C.3     1  UNL1        0.0258
     36 C           0.6151    1.8889   30.2151 C.3     1  UNL1        0.0179
     37 N           2.1046    3.2258   35.2394 N.3     1  UNL1       -0.2702
     38 C           2.4718    2.0661   34.3617 C.3     1  UNL1        0.0897
     39 C           2.0559    2.0551   32.9205 C.3     1  UNL1        0.0896
     40 N           1.2729    3.2038   32.3571 N.3     1  UNL1       -0.2716
     41 C           0.9057    4.3634   33.2348 C.3     1  UNL1        0.0896
     42 C           1.3216    4.3745   34.6760 C.3     1  UNL1        0.0897
     43 C           2.5205    3.2368   36.6805 C.3     1  UNL1        0.0748
     44 C           1.5211    3.5738   37.7471 C.3     1  UNL1        0.0494
     45 C           1.2179    2.5823   38.8311 C.3     1  UNL1        0.1437
     46 C           1.1978    0.1038   39.6097 C.3     1  UNL1        0.1741
     47 O           1.1345    1.1199   38.5081 O.3     1  UNL1       -0.3511
@<TRIPOS>BOND
     1    46    47    1
     2    47    45    1
     3    45    44    1
     4    44    43    1
     5    43    37    1
     6    37    38    1
     7    38    39    1
     8    39    40    1
     9    31    40    1
    10    31    32    1
    11    32    33    1
    12    33    34    1
    13    34     1    1
    14     1     2   ar
    15     2     3   ar
    16     3    13    1
    17    13    14    2
    18    14    15    1
    19    15    16    2
    20    16    17    1
    21    17    18    2
    22    18    22    1
    23    22    23    1
    24    23    24   ar
    25    24    25   ar
    26    25    26   ar
    27    26    27   ar
    28    27    28   ar
    29    28    29    1
    30    29    30    1
    31    18    19    1
    32    19    20    2
    33    20    21    1
    34     3     4   ar
    35     4     5   ar
    36     5     6    1
    37     5     7   ar
    38     7     8   ar
    39     8     9   ar
    40     9    10   ar
    41    34    35    1
    42    35    36    1
    43    40    41    1
    44    41    42    1
    45    42    37    1
    46    36    31    1
    47    10     1   ar
    48    21    13    1
    49    10     4   ar
    50    20    16    1
    51    28    23   ar
    52     6    11    1
    53     6    12    1
@<TRIPOS>MOLECULE
*****
 47 53 0 0 0
SMALL
GASTEIGER

@<TRIPOS>ATOM
      1 N          -3.4024    3.7999   23.4844 N.ar    1  UNL1       -0.2359
      2 N          -2.7353    3.6119   22.1541 N.ar    1  UNL1       -0.1682
      3 C          -1.2957    3.2710   22.4017 C.ar    1  UNL1        0.1030
      4 C          -1.0731    3.2483   23.8849 C.ar    1  UNL1        0.0857
      5 C           0.1470    2.9722   24.7126 C.ar    1  UNL1        0.1316
      6 N           1.4491    2.6453   24.0434 N.pl3   1  UNL1       -0.3425
      7 N           0.0650    3.0231   26.2095 N.ar    1  UNL1       -0.2093
      8 C          -1.2370    3.3500   26.8786 C.ar    1  UNL1        0.2014
      9 N          -2.4571    3.6260   26.0509 N.ar    1  UNL1       -0.2050
     10 C          -2.3751    3.5752   24.5541 C.ar    1  UNL1        0.1652
     11 H           1.5028    2.6120   23.0610 H       1  UNL1        0.1437
     12 H           2.2499    2.4641   24.5867 H       1  UNL1        0.1437
     13 C          -0.2604    3.0003   21.3505 C.2     1  UNL1        0.0059
     14 C           0.4102    4.1424   20.6466 C.2     1  UNL1        0.0017
     15 C           1.4455    3.8717   19.5954 C.2     1  UNL1        0.0499
     16 C           1.8102    2.4587   19.2482 C.2     1  UNL1        0.2317
     17 N           2.7861    1.8872   18.2629 N.2     1  UNL1       -0.0347
     18 C           2.7187    0.3917   18.3579 C.2     1  UNL1        0.3557
     19 N           1.7010    0.0390   19.4019 N.2     1  UNL1       -0.0385
     20 C           1.1396    1.3165   19.9522 C.2     1  UNL1        0.2175
     21 C           0.1043    1.5872   21.0033 C.3     1  UNL1        0.1056
     22 C           3.5268   -0.5803   17.5506 C.3     1  UNL1        0.1531
     23 C           4.3014   -1.6651   18.2386 C.ar    1  UNL1        0.0242
     24 C           3.5969   -2.6301   19.1454 C.ar    1  UNL1       -0.0007
     25 C           4.3715   -3.7149   19.8335 C.ar    1  UNL1       -0.0001
     26 C           5.8506   -3.8345   19.6147 C.ar    1  UNL1        0.0031
     27 C           6.5552   -2.8695   18.7079 C.ar    1  UNL1        0.0366
     28 C           5.7806   -1.7848   18.0199 C.ar    1  UNL1        0.1353
     29 O           6.4852   -0.8198   17.1131 O.3     1  UNL1       -0.4717
     30 C           6.9661    0.4968   17.6472 C.3     1  UNL1        0.2525
     31 C          -7.7266    4.8532   24.1496 C.3     1  UNL1        0.0577
     32 C          -6.6939    5.2485   25.1631 C.3     1  UNL1        0.0179
     33 C          -5.2525    4.8974   24.9414 C.3     1  UNL1        0.0258
     34 C          -4.8438    4.1510   23.7061 C.3     1  UNL1        0.1069
     35 C          -5.8765    3.7557   22.6927 C.3     1  UNL1        0.0258
     36 C          -7.3179    4.1068   22.9144 C.3     1  UNL1        0.0179
     37 N         -12.0507    5.9063   24.8147 N.3     1  UNL1       -0.2702
     38 C         -11.0417    6.9916   24.5824 C.3     1  UNL1        0.0897
     39 C          -9.6003    6.6406   24.3607 C.3     1  UNL1        0.0896
     40 N          -9.1680    5.2043   24.3713 N.3     1  UNL1       -0.2716
     41 C         -10.1770    4.1190   24.6036 C.3     1  UNL1        0.0896
     42 C         -11.6185    4.4700   24.8253 C.3     1  UNL1        0.0897
     43 C         -13.4921    6.2574   25.0364 C.3     1  UNL1        0.0748
     44 C         -14.5721    5.3496   24.5270 C.3     1  UNL1        0.0494
     45 C         -14.8190    5.2318   23.0521 C.3     1  UNL1        0.1437
     46 C         -13.8316    6.7440   21.1845 C.3     1  UNL1        0.1741
     47 O         -13.7204    5.5460   22.0803 O.3     1  UNL1       -0.3511
@<TRIPOS>BOND
     1    46    47    1
     2    47    45    1
     3    45    44    1
     4    44    43    1
     5    43    37    1
     6    37    38    1
     7    38    39    1
     8    39    40    1
     9    31    40    1
    10    31    32    1
    11    32    33    1
    12    33    34    1
    13    34     1    1
    14     1     2   ar
    15     2     3   ar
    16     3    13    1
    17    13    14    2
    18    14    15    1
    19    15    16    2
    20    16    17    1
    21    17    18    2
    22    18    22    1
    23    22    23    1
    24    23    24   ar
    25    24    25   ar
    26    25    26   ar
    27    26    27   ar
    28    27    28   ar
    29    28    29    1
    30    29    30    1
    31    18    19    1
    32    19    20    2
    33    20    21    1
    34     3     4   ar
    35     4     5   ar
    36     5     6    1
    37     5     7   ar
    38     7     8   ar
    39     8     9   ar
    40     9    10   ar
    41    34    35    1
    42    35    36    1
    43    40    41    1
    44    41    42    1
    45    42    37    1
    46    36    31    1
    47    10     1   ar
    48    21    13    1
    49    10     4   ar
    50    20    16    1
    51    28    23   ar
    52     6    11    1
    53     6    12    1
@<TRIPOS>MOLECULE
*****
 47 53 0 0 0
SMALL
GASTEIGER

@<TRIPOS>ATOM
      1 N           7.4787   -3.3198   29.4563 N.ar    1  UNL1       -0.2359
      2 N           7.2668   -2.8540   28.0463 N.ar    1  UNL1       -0.1682
      3 C           7.7833   -3.9182   27.1240 C.ar    1  UNL1        0.1030
      4 C           8.3145   -5.0417   27.9639 C.ar    1  UNL1        0.0857
      5 C           8.9453   -6.3537   27.6025 C.ar    1  UNL1        0.1316
      6 N           9.1335   -6.7235   26.1610 N.pl3   1  UNL1       -0.3425
      7 N           9.3878   -7.2959   28.6825 N.ar    1  UNL1       -0.2093
      8 C           9.1995   -6.9261   30.1239 C.ar    1  UNL1        0.2014
      9 N           8.5687   -5.6141   30.4854 N.ar    1  UNL1       -0.2050
     10 C           8.1262   -4.6719   29.4054 C.ar    1  UNL1        0.1652
     11 H           8.8431   -6.1051   25.4522 H       1  UNL1        0.1437
     12 H           9.5476   -7.5846   25.9238 H       1  UNL1        0.1437
     13 C           7.7709   -3.8677   25.6249 C.2     1  UNL1        0.0059
     14 C           9.0565   -3.7065   24.8692 C.2     1  UNL1        0.0017
     15 C           9.0441   -3.6560   23.3701 C.2     1  UNL1        0.0499
     16 C           7.7460   -3.7668   22.6266 C.2     1  UNL1        0.2317
     17 N           7.4236   -3.7501   21.1618 N.2     1  UNL1       -0.0347
     18 C           5.9388   -3.9010   21.0121 C.2     1  UNL1        0.3557
     19 N           5.3434   -4.0110   22.3845 N.2     1  UNL1       -0.0385
     20 C           6.4603   -3.9280   23.3823 C.2     1  UNL1        0.2175
     21 C           6.4727   -3.9785   24.8814 C.3     1  UNL1        0.1056
     22 C           5.1822   -3.9358   19.7175 C.3     1  UNL1        0.1531
     23 C           4.5656   -2.6806   19.1750 C.ar    1  UNL1        0.0242
     24 C           3.2312   -2.2205   19.6824 C.ar    1  UNL1       -0.0007
     25 C           2.6147   -0.9652   19.1400 C.ar    1  UNL1       -0.0001
     26 C           3.3326   -0.1701   18.0901 C.ar    1  UNL1        0.0031
     27 C           4.6671   -0.6302   17.5827 C.ar    1  UNL1        0.0366
     28 C           5.2836   -1.8854   18.1252 C.ar    1  UNL1        0.1353
     29 O           6.6180   -2.3455   17.6177 O.3     1  UNL1       -0.4717
     30 C           7.8716   -1.9551   18.3431 C.3     1  UNL1        0.2525
     31 C           6.3671   -1.0581   33.1845 C.3     1  UNL1        0.0577
     32 C           7.4365   -0.5275   32.2762 C.3     1  UNL1        0.0179
     33 C           7.8070   -1.2814   31.0335 C.3     1  UNL1        0.0258
     34 C           7.1081   -2.5659   30.6990 C.3     1  UNL1        0.1069
     35 C           6.0388   -3.0964   31.6073 C.3     1  UNL1        0.0258
     36 C           5.6683   -2.3425   32.8500 C.3     1  UNL1        0.0179
     37 N           5.2556    1.2035   36.9127 N.3     1  UNL1       -0.2702
     38 C           4.2645    1.0663   35.7952 C.3     1  UNL1        0.0897
     39 C           4.6349    0.3124   34.5524 C.3     1  UNL1        0.0896
     40 N           5.9966   -0.3042   34.4272 N.3     1  UNL1       -0.2716
     41 C           6.9877   -0.1670   35.5447 C.3     1  UNL1        0.0896
     42 C           6.6172    0.5868   36.7875 C.3     1  UNL1        0.0897
     43 C           4.8851    1.9574   38.1554 C.3     1  UNL1        0.0748
     44 C           3.4419    2.1259   38.5282 C.3     1  UNL1        0.0494
     45 C           2.6487    0.9468   39.0083 C.3     1  UNL1        0.1437
     46 C           0.4296    2.2139   39.4771 C.3     1  UNL1        0.1741
     47 O           1.4270    1.1583   39.8525 O.3     1  UNL1       -0.3511
@<TRIPOS>BOND
     1    46    47    1
     2    47    45    1
     3    45    44    1
     4    44    43    1
     5    43    37    1
     6    37    38    1
     7    38    39    1
     8    39    40    1
     9    31    40    1
    10    31    32    1
    11    32    33    1
    12    33    34    1
    13    34     1    1
    14     1     2   ar
    15     2     3   ar
    16     3    13    1
    17    13    14    2
    18    14    15    1
    19    15    16    2
    20    16    17    1
    21    17    18    2
    22    18    22    1
    23    22    23    1
    24    23    24   ar
    25    24    25   ar
    26    25    26   ar
    27    26    27   ar
    28    27    28   ar
    29    28    29    1
    30    29    30    1
    31    18    19    1
    32    19    20    2
    33    20    21    1
    34     3     4   ar
    35     4     5   ar
    36     5     6    1
    37     5     7   ar
    38     7     8   ar
    39     8     9   ar
    40     9    10   ar
    41    34    35    1
    42    35    36    1
    43    40    41    1
    44    41    42    1
    45    42    37    1
    46    36    31    1
    47    10     1   ar
    48    21    13    1
    49    10     4   ar
    50    20    16    1
    51    28    23   ar
    52     6    11    1
    53     6    12    1
@<TRIPOS>MOLECULE
*****
 47 53 0 0 0
SMALL
GASTEIGER

@<TRIPOS>ATOM
      1 N           5.8177   -2.2728   28.0263 N.ar    1  UNL1       -0.2359
      2 N           5.8091   -1.3460   29.2056 N.ar    1  UNL1       -0.1682
      3 C           6.3443   -2.0966   30.3889 C.ar    1  UNL1        0.1030
      4 C           6.6837   -3.4873   29.9409 C.ar    1  UNL1        0.0857
      5 C           7.2470   -4.6685   30.6739 C.ar    1  UNL1        0.1316
      6 N           7.5725   -4.5595   32.1341 N.pl3   1  UNL1       -0.3425
      7 N           7.4850   -5.9586   29.9467 N.ar    1  UNL1       -0.2093
      8 C           7.1595   -6.0676   28.4865 C.ar    1  UNL1        0.2014
      9 N           6.5962   -4.8863   27.7535 N.ar    1  UNL1       -0.2050
     10 C           6.3583   -3.5962   28.4807 C.ar    1  UNL1        0.1652
     11 H           7.4163   -3.7128   32.6114 H       1  UNL1        0.1437
     12 H           7.9422   -5.3348   32.6152 H       1  UNL1        0.1437
     13 C           6.5108   -1.5521   31.7766 C.2     1  UNL1        0.0059
     14 C           7.8849   -1.3171   32.3303 C.2     1  UNL1        0.0017
     15 C           8.0514   -0.7726   33.7180 C.2     1  UNL1        0.0499
     16 C           6.8438   -0.4630   34.5521 C.2     1  UNL1        0.2317
     17 N           6.6967    0.0785   35.9432 N.2     1  UNL1       -0.0347
     18 C           5.2317    0.1783   36.2494 C.2     1  UNL1        0.3557
     19 N           4.4733   -0.3016   35.0475 N.2     1  UNL1       -0.0385
     20 C           5.4696   -0.6980   33.9986 C.2     1  UNL1        0.2175
     21 C           5.3031   -1.2425   32.6108 C.3     1  UNL1        0.1056
     22 C           4.6306    0.6714   37.5320 C.3     1  UNL1        0.1531
     23 C           3.6063    1.7669   37.5080 C.ar    1  UNL1        0.0242
     24 C           3.6854    2.8450   36.4680 C.ar    1  UNL1       -0.0007
     25 C           2.6611    3.9405   36.4440 C.ar    1  UNL1       -0.0001
     26 C           1.5576    3.9580   37.4599 C.ar    1  UNL1        0.0031
     27 C           1.4785    2.8799   38.4998 C.ar    1  UNL1        0.0366
     28 C           2.5028    1.7844   38.5239 C.ar    1  UNL1        0.1353
     29 O           2.4237    0.7064   39.5639 O.3     1  UNL1       -0.4717
     30 C           1.1645   -0.0935   39.7206 C.3     1  UNL1        0.2525
     31 C           4.4604   -1.2610   23.8568 C.3     1  UNL1        0.0577
     32 C           5.7918   -1.9170   24.0737 C.3     1  UNL1        0.0179
     33 C           6.2443   -2.2543   25.4635 C.3     1  UNL1        0.0258
     34 C           5.3653   -1.9355   26.6365 C.3     1  UNL1        0.1069
     35 C           4.0340   -1.2795   26.4196 C.3     1  UNL1        0.0258
     36 C           3.5815   -0.9422   25.0298 C.3     1  UNL1        0.0179
     37 N           3.1032   -0.2491   19.6875 N.3     1  UNL1       -0.2702
     38 C           2.1129   -0.2715   20.8138 C.3     1  UNL1        0.0897
     39 C           2.5653   -0.6088   22.2036 C.3     1  UNL1        0.0896
     40 N           4.0080   -0.9237   22.4670 N.3     1  UNL1       -0.2716
     41 C           4.9983   -0.9012   21.3407 C.3     1  UNL1        0.0896
     42 C           4.5460   -0.5640   19.9508 C.3     1  UNL1        0.0897
     43 C           2.6508    0.0882   18.2977 C.3     1  UNL1        0.0748
     44 C           1.3103    0.7249   18.0791 C.3     1  UNL1        0.0494
     45 C           1.0831    2.1518   18.4821 C.3     1  UNL1        0.1437
     46 C          -0.0968    3.8032   20.1040 C.3     1  UNL1        0.1741
     47 O          -0.0909    2.5097   19.3445 O.3     1  UNL1       -0.3511
@<TRIPOS>BOND
     1    46    47    1
     2    47    45    1
     3    45    44    1
     4    44    43    1
     5    43    37    1
     6    37    38    1
     7    38    39    1
     8    39    40    1
     9    31    40    1
    10    31    32    1
    11    32    33    1
    12    33    34    1
    13    34     1    1
    14     1     2   ar
    15     2     3   ar
    16     3    13    1
    17    13    14    2
    18    14    15    1
    19    15    16    2
    20    16    17    1
    21    17    18    2
    22    18    22    1
    23    22    23    1
    24    23    24   ar
    25    24    25   ar
    26    25    26   ar
    27    26    27   ar
    28    27    28   ar
    29    28    29    1
    30    29    30    1
    31    18    19    1
    32    19    20    2
    33    20    21    1
    34     3     4   ar
    35     4     5   ar
    36     5     6    1
    37     5     7   ar
    38     7     8   ar
    39     8     9   ar
    40     9    10   ar
    41    34    35    1
    42    35    36    1
    43    40    41    1
    44    41    42    1
    45    42    37    1
    46    36    31    1
    47    10     1   ar
    48    21    13    1
    49    10     4   ar
    50    20    16    1
    51    28    23   ar
    52     6    11    1
    53     6    12    1
@<TRIPOS>MOLECULE
*****
 47 53 0 0 0
SMALL
GASTEIGER

@<TRIPOS>ATOM
      1 N           0.7127    1.9821   20.8198 N.ar    1  UNL1       -0.2359
      2 N           1.2314    0.6527   21.2817 N.ar    1  UNL1       -0.1682
      3 C           2.5417    0.4027   20.5956 C.ar    1  UNL1        0.1030
      4 C           2.8327    1.5776   19.7096 C.ar    1  UNL1        0.0857
      5 C           3.9809    1.8847   18.7947 C.ar    1  UNL1        0.1316
      6 N           5.1113    0.9085   18.6561 N.pl3   1  UNL1       -0.3425
      7 N           3.9987    3.1679   18.0182 N.ar    1  UNL1       -0.2093
      8 C           2.8683    4.1441   18.1568 C.ar    1  UNL1        0.2014
      9 N           1.7200    3.8370   19.0718 N.ar    1  UNL1       -0.2050
     10 C           1.7022    2.5538   19.8482 C.ar    1  UNL1        0.1652
     11 H           5.0996    0.0662   19.1657 H       1  UNL1        0.1437
     12 H           5.8649    1.1100   18.0556 H       1  UNL1        0.1437
     13 C           3.4088   -0.8095   20.7656 C.2     1  UNL1        0.0059
     14 C           3.1732   -2.0249   19.9188 C.2     1  UNL1        0.0017
     15 C           4.0403   -3.2370   20.0887 C.2     1  UNL1        0.0499
     16 C           5.1430   -3.2338   21.1056 C.2     1  UNL1        0.2317
     17 N           6.1518   -4.2731   21.4956 N.2     1  UNL1       -0.0347
     18 C           7.0109   -3.7000   22.5835 C.2     1  UNL1        0.3557
     19 N           6.5330   -2.3065   22.8659 N.2     1  UNL1       -0.0385
     20 C           5.3786   -2.0183   21.9525 C.2     1  UNL1        0.2175
     21 C           4.5115   -0.8062   21.7825 C.3     1  UNL1        0.1056
     22 C           8.1481   -4.3979   23.2687 C.3     1  UNL1        0.1531
     23 C           7.8707   -5.4076   24.3427 C.ar    1  UNL1        0.0242
     24 C           8.1856   -6.8556   24.1101 C.ar    1  UNL1       -0.0007
     25 C           7.9082   -7.8654   25.1841 C.ar    1  UNL1       -0.0001
     26 C           7.3158   -7.4272   26.4906 C.ar    1  UNL1        0.0031
     27 C           7.0008   -5.9792   26.7232 C.ar    1  UNL1        0.0366
     28 C           7.2782   -4.9694   25.6492 C.ar    1  UNL1        0.1353
     29 O           6.9632   -3.5215   25.8818 O.3     1  UNL1       -0.4717
     30 C           6.3191   -3.0909   27.1662 C.3     1  UNL1        0.2525
     31 C          -3.1367    3.9162   22.1205 C.3     1  UNL1        0.0577
     32 C          -2.0257    3.7180   23.1086 C.3     1  UNL1        0.0179
     33 C          -0.7426    3.0733   22.6751 C.3     1  UNL1        0.0258
     34 C          -0.5705    2.6268   21.2533 C.3     1  UNL1        0.1069
     35 C          -1.6815    2.8251   20.2654 C.3     1  UNL1        0.0258
     36 C          -2.9646    3.4698   20.6989 C.3     1  UNL1        0.0179
     37 N          -6.9862    5.8502   23.4211 N.3     1  UNL1       -0.2702
     38 C          -5.7324    6.6676   23.3215 C.3     1  UNL1        0.0897
     39 C          -4.4492    6.0230   22.8880 C.3     1  UNL1        0.0896
     40 N          -4.4199    4.5609   22.5541 N.3     1  UNL1       -0.2716
     41 C          -5.6736    3.7435   22.6536 C.3     1  UNL1        0.0896
     42 C          -6.9568    4.3881   23.0872 C.3     1  UNL1        0.0897
     43 C          -8.2693    6.4949   23.8546 C.3     1  UNL1        0.0748
     44 C          -8.7476    6.3377   25.2676 C.3     1  UNL1        0.0494
     45 C          -7.8038    6.5729   26.4095 C.3     1  UNL1        0.1437
     46 C          -7.3790    6.7109   28.9689 C.3     1  UNL1        0.1741
     47 O          -8.2450    6.2966   27.8163 O.3     1  UNL1       -0.3511
@<TRIPOS>BOND
     1    46    47    1
     2    47    45    1
     3    45    44    1
     4    44    43    1
     5    43    37    1
     6    37    38    1
     7    38    39    1
     8    39    40    1
     9    31    40    1
    10    31    32    1
    11    32    33    1
    12    33    34    1
    13    34     1    1
    14     1     2   ar
    15     2     3   ar
    16     3    13    1
    17    13    14    2
    18    14    15    1
    19    15    16    2
    20    16    17    1
    21    17    18    2
    22    18    22    1
    23    22    23    1
    24    23    24   ar
    25    24    25   ar
    26    25    26   ar
    27    26    27   ar
    28    27    28   ar
    29    28    29    1
    30    29    30    1
    31    18    19    1
    32    19    20    2
    33    20    21    1
    34     3     4   ar
    35     4     5   ar
    36     5     6    1
    37     5     7   ar
    38     7     8   ar
    39     8     9   ar
    40     9    10   ar
    41    34    35    1
    42    35    36    1
    43    40    41    1
    44    41    42    1
    45    42    37    1
    46    36    31    1
    47    10     1   ar
    48    21    13    1
    49    10     4   ar
    50    20    16    1
    51    28    23   ar
    52     6    11    1
    53     6    12    1
@<TRIPOS>MOLECULE
*****
 47 53 0 0 0
SMALL
GASTEIGER

@<TRIPOS>ATOM
      1 N           5.8706   -1.8659   28.2731 N.ar    1  UNL1       -0.2359
      2 N           5.8543   -0.9650   29.4723 N.ar    1  UNL1       -0.1682
      3 C           6.2220   -1.7852   30.6732 C.ar    1  UNL1        0.1030
      4 C           6.4655   -3.1930   30.2162 C.ar    1  UNL1        0.0857
      5 C           6.8569   -4.4359   30.9591 C.ar    1  UNL1        0.1316
      6 N           7.0740   -4.3860   32.4425 N.pl3   1  UNL1       -0.3425
      7 N           7.0311   -5.7286   30.2187 N.ar    1  UNL1       -0.2093
      8 C           6.8139   -5.7785   28.7353 C.ar    1  UNL1        0.2014
      9 N           6.4226   -4.5356   27.9924 N.ar    1  UNL1       -0.2050
     10 C           6.2483   -3.2428   28.7328 C.ar    1  UNL1        0.1652
     11 H           6.9597   -3.5375   32.9285 H       1  UNL1        0.1437
     12 H           7.3309   -5.2018   32.9301 H       1  UNL1        0.1437
     13 C           6.3276   -1.2854   32.0836 C.2     1  UNL1        0.0059
     14 C           7.6752   -1.0200   32.6863 C.2     1  UNL1        0.0017
     15 C           7.7808   -0.5202   34.0966 C.2     1  UNL1        0.0499
     16 C           6.5387   -0.2857   34.9043 C.2     1  UNL1        0.2317
     17 N           6.3311    0.1994   36.3083 N.2     1  UNL1       -0.0347
     18 C           4.8552    0.2339   36.5734 C.2     1  UNL1        0.3557
     19 N           4.1505   -0.2299   35.3331 N.2     1  UNL1       -0.0385
     20 C           5.1910   -0.5511   34.3015 C.2     1  UNL1        0.2175
     21 C           5.0854   -1.0509   32.8912 C.3     1  UNL1        0.1056
     22 C           4.1990    0.6578   37.8539 C.3     1  UNL1        0.1531
     23 C           4.1673    2.1079   38.2362 C.ar    1  UNL1        0.0242
     24 C           5.1286    2.6348   39.2601 C.ar    1  UNL1       -0.0007
     25 C           5.0969    4.0849   39.6424 C.ar    1  UNL1       -0.0001
     26 C           4.1039    5.0082   39.0009 C.ar    1  UNL1        0.0031
     27 C           3.1426    4.4813   37.9771 C.ar    1  UNL1        0.0366
     28 C           3.1743    3.0312   37.5947 C.ar    1  UNL1        0.1353
     29 O           2.2130    2.5044   36.5708 O.3     1  UNL1       -0.4717
     30 C           2.3722    2.8825   35.1280 C.3     1  UNL1        0.2525
     31 C           4.9484   -0.6510   24.0395 C.3     1  UNL1        0.0577
     32 C           6.3732   -0.7493   24.4981 C.3     1  UNL1        0.0179
     33 C           6.6806   -1.1543   25.9093 C.3     1  UNL1        0.0258
     34 C           5.5632   -1.4609   26.8619 C.3     1  UNL1        0.1069
     35 C           4.1385   -1.3626   26.4033 C.3     1  UNL1        0.0258
     36 C           3.8311   -0.9577   24.9921 C.3     1  UNL1        0.0179
     37 N           4.0262    0.5639   19.8059 N.3     1  UNL1       -0.2702
     38 C           3.2070   -0.4988   20.4765 C.3     1  UNL1        0.0897
     39 C           3.5144   -0.9038   21.8877 C.3     1  UNL1        0.0896
     40 N           4.6410   -0.2461   22.6282 N.3     1  UNL1       -0.2716
     41 C           5.4601    0.8166   21.9576 C.3     1  UNL1        0.0896
     42 C           5.1527    1.2216   20.5464 C.3     1  UNL1        0.0897
     43 C           3.7187    0.9688   18.3947 C.3     1  UNL1        0.0748
     44 C           3.0760   -0.0095   17.4568 C.3     1  UNL1        0.0494
     45 C           3.8935   -1.1058   16.8406 C.3     1  UNL1        0.1437
     46 C           5.5229   -2.6699   18.1246 C.3     1  UNL1        0.1741
     47 O           5.2674   -1.4021   17.3647 O.3     1  UNL1       -0.3511
@<TRIPOS>BOND
     1    46    47    1
     2    47    45    1
     3    45    44    1
     4    44    43    1
     5    43    37    1
     6    37    38    1
     7    38    39    1
     8    39    40    1
     9    31    40    1
    10    31    32    1
    11    32    33    1
    12    33    34    1
    13    34     1    1
    14     1     2   ar
    15     2     3   ar
    16     3    13    1
    17    13    14    2
    18    14    15    1
    19    15    16    2
    20    16    17    1
    21    17    18    2
    22    18    22    1
    23    22    23    1
    24    23    24   ar
    25    24    25   ar
    26    25    26   ar
    27    26    27   ar
    28    27    28   ar
    29    28    29    1
    30    29    30    1
    31    18    19    1
    32    19    20    2
    33    20    21    1
    34     3     4   ar
    35     4     5   ar
    36     5     6    1
    37     5     7   ar
    38     7     8   ar
    39     8     9   ar
    40     9    10   ar
    41    34    35    1
    42    35    36    1
    43    40    41    1
    44    41    42    1
    45    42    37    1
    46    36    31    1
    47    10     1   ar
    48    21    13    1
    49    10     4   ar
    50    20    16    1
    51    28    23   ar
    52     6    11    1
    53     6    12    1
@<TRIPOS>MOLECULE
*****
 47 53 0 0 0
SMALL
GASTEIGER

@<TRIPOS>ATOM
      1 N          -3.3419    4.3171   22.6377 N.ar    1  UNL1       -0.2359
      2 N          -2.8506    3.2409   21.7157 N.ar    1  UNL1       -0.1682
      3 C          -1.3582    3.3575   21.6208 C.ar    1  UNL1        0.1030
      4 C          -0.9271    4.5059   22.4842 C.ar    1  UNL1        0.0857
      5 C           0.4234    5.0881   22.7792 C.ar    1  UNL1        0.1316
      6 N           1.6494    4.4950   22.1507 N.pl3   1  UNL1       -0.3425
      7 N           0.5478    6.2635   23.7028 N.ar    1  UNL1       -0.2093
      8 C          -0.6782    6.8566   24.3313 C.ar    1  UNL1        0.2014
      9 N          -2.0287    6.2743   24.0363 N.ar    1  UNL1       -0.2050
     10 C          -2.1532    5.0990   23.1127 C.ar    1  UNL1        0.1652
     11 H           1.5677    3.7236   21.5445 H       1  UNL1        0.1437
     12 H           2.5358    4.8772   22.3444 H       1  UNL1        0.1437
     13 C          -0.4553    2.4799   20.8056 C.2     1  UNL1        0.0059
     14 C          -0.1730    2.8198   19.3722 C.2     1  UNL1        0.0017
     15 C           0.7299    1.9422   18.5570 C.2     1  UNL1        0.0499
     16 C           1.3506    0.7246   19.1753 C.2     1  UNL1        0.2317
     17 N           2.2744   -0.3209   18.6242 N.2     1  UNL1       -0.0347
     18 C           2.5631   -1.3069   19.7170 C.2     1  UNL1        0.3557
     19 N           1.8177   -0.8709   20.9435 N.2     1  UNL1       -0.0385
     20 C           1.0683    0.3846   20.6087 C.2     1  UNL1        0.2175
     21 C           0.1654    1.2622   21.4239 C.3     1  UNL1        0.1056
     22 C           3.4426   -2.5166   19.6034 C.3     1  UNL1        0.1531
     23 C           4.9294   -2.3547   19.4880 C.ar    1  UNL1        0.0242
     24 C           5.5809   -2.3524   18.1369 C.ar    1  UNL1       -0.0007
     25 C           7.0677   -2.1905   18.0214 C.ar    1  UNL1       -0.0001
     26 C           7.9030   -2.0310   19.2571 C.ar    1  UNL1        0.0031
     27 C           7.2515   -2.0334   20.6082 C.ar    1  UNL1        0.0366
     28 C           5.7647   -2.1952   20.7236 C.ar    1  UNL1        0.1353
     29 O           5.1133   -2.1975   22.0748 O.3     1  UNL1       -0.4717
     30 C           4.9054   -3.4912   22.8050 C.3     1  UNL1        0.2525
     31 C          -7.6295    5.0686   23.7789 C.3     1  UNL1        0.0577
     32 C          -6.6162    4.7502   24.8381 C.3     1  UNL1        0.0179
     33 C          -5.1871    4.4997   24.4578 C.3     1  UNL1        0.0258
     34 C          -4.7711    4.5676   23.0181 C.3     1  UNL1        0.1069
     35 C          -5.7844    4.8861   21.9590 C.3     1  UNL1        0.0258
     36 C          -7.2136    5.1366   22.3394 C.3     1  UNL1        0.0179
     37 N         -11.9170    5.8203   24.9200 N.3     1  UNL1       -0.2702
     38 C         -11.3847    4.4184   24.8860 C.3     1  UNL1        0.0897
     39 C          -9.9555    4.1677   24.5057 C.3     1  UNL1        0.0896
     40 N          -9.0587    5.3192   24.1593 N.3     1  UNL1       -0.2716
     41 C          -9.5910    6.7211   24.1932 C.3     1  UNL1        0.0896
     42 C         -11.0202    6.9717   24.5736 C.3     1  UNL1        0.0897
     43 C         -13.3462    6.0708   25.3004 C.3     1  UNL1        0.0748
     44 C         -14.2022    4.9392   25.7870 C.3     1  UNL1        0.0494
     45 C         -15.2531    5.1878   26.8280 C.3     1  UNL1        0.1437
     46 C         -16.9309    7.1655   26.6749 C.3     1  UNL1        0.1741
     47 O         -15.6406    6.5929   27.1821 O.3     1  UNL1       -0.3511
@<TRIPOS>BOND
     1    46    47    1
     2    47    45    1
     3    45    44    1
     4    44    43    1
     5    43    37    1
     6    37    38    1
     7    38    39    1
     8    39    40    1
     9    31    40    1
    10    31    32    1
    11    32    33    1
    12    33    34    1
    13    34     1    1
    14     1     2   ar
    15     2     3   ar
    16     3    13    1
    17    13    14    2
    18    14    15    1
    19    15    16    2
    20    16    17    1
    21    17    18    2
    22    18    22    1
    23    22    23    1
    24    23    24   ar
    25    24    25   ar
    26    25    26   ar
    27    26    27   ar
    28    27    28   ar
    29    28    29    1
    30    29    30    1
    31    18    19    1
    32    19    20    2
    33    20    21    1
    34     3     4   ar
    35     4     5   ar
    36     5     6    1
    37     5     7   ar
    38     7     8   ar
    39     8     9   ar
    40     9    10   ar
    41    34    35    1
    42    35    36    1
    43    40    41    1
    44    41    42    1
    45    42    37    1
    46    36    31    1
    47    10     1   ar
    48    21    13    1
    49    10     4   ar
    50    20    16    1
    51    28    23   ar
    52     6    11    1
    53     6    12    1
