@<TRIPOS>MOLECULE
*****
 20 22 0 0 0
SMALL
GASTEIGER

@<TRIPOS>ATOM
      1 C          -7.6617  -18.7955   21.2609 C.ar    1  UNL1        0.0528
      2 C          -6.8204  -18.1859   22.3427 C.ar    1  UNL1        0.0043
      3 C          -5.3554  -18.4983   22.4193 C.ar    1  UNL1       -0.0037
      4 C          -4.7316  -19.4204   21.4139 C.ar    1  UNL1       -0.0162
      5 C          -5.5729  -20.0300   20.3320 C.ar    1  UNL1       -0.0037
      6 C          -7.0380  -19.7176   20.2555 C.ar    1  UNL1        0.0043
      7 C         -12.8837  -17.7593   21.5778 C.3     1  UNL1        0.0283
      8 C         -11.4385  -18.0878   21.8093 C.3     1  UNL1        0.1279
      9 C         -11.8548  -18.1901   23.2468 C.3     1  UNL1        0.0283
     10 C         -11.3244  -17.9169   20.3234 C.3     1  UNL1        0.2292
     11 O          -9.8957  -18.1612   19.9372 O.2     1  UNL1       -0.4584
     12 C          -9.1269  -18.4831   21.1843 C.2     1  UNL1        0.2203
     13 N         -10.0804  -18.4378   22.3413 N.2     1  UNL1       -0.2380
     14 C          -3.2664  -19.7328   21.4905 C.3     1  UNL1        0.0715
     15 C          -2.2861  -18.9340   20.6837 C.ar    1  UNL1        0.0586
     16 C          -2.2823  -18.7911   19.1906 C.ar    1  UNL1        0.1134
     17 N          -1.1313  -17.9067   18.8125 N.ar    1  UNL1       -0.2229
     18 C          -0.4237  -17.5030   20.0720 C.ar    1  UNL1        0.1748
     19 N          -1.1374  -18.1379   21.2285 N.ar    1  UNL1       -0.3379
     20 H          -0.8945  -18.0480   22.1783 H       1  UNL1        0.1672
@<TRIPOS>BOND
     1     7     8    1
     2     8     9    1
     3     8    10    1
     4    10    11    1
     5    11    12    1
     6    12     1    1
     7     1     2   ar
     8     2     3   ar
     9     3     4   ar
    10     4    14    1
    11    14    15    1
    12    15    16   ar
    13    16    17   ar
    14    17    18   ar
    15    18    19   ar
    16     4     5   ar
    17     5     6   ar
    18    12    13    2
    19    13     8    1
    20     6     1   ar
    21    19    15   ar
    22    19    20    1
@<TRIPOS>MOLECULE
*****
 20 22 0 0 0
SMALL
GASTEIGER

@<TRIPOS>ATOM
      1 C          -8.9207  -19.2325   21.4338 C.ar    1  UNL1        0.0528
      2 C          -8.5928  -19.3276   19.9732 C.ar    1  UNL1        0.0043
      3 C          -7.2268  -19.7691   19.5384 C.ar    1  UNL1       -0.0037
      4 C          -6.1887  -20.1155   20.5643 C.ar    1  UNL1       -0.0162
      5 C          -6.5166  -20.0204   22.0248 C.ar    1  UNL1       -0.0037
      6 C          -7.8826  -19.5789   22.4596 C.ar    1  UNL1        0.0043
      7 C         -13.6318  -17.8578   23.5216 C.3     1  UNL1        0.0283
      8 C         -12.2426  -18.3458   23.2350 C.3     1  UNL1        0.1279
      9 C         -12.2405  -18.7121   24.6896 C.3     1  UNL1        0.0283
     10 C         -12.5352  -17.8775   21.8403 C.3     1  UNL1        0.2292
     11 O         -11.3264  -18.1527   20.9959 O.2     1  UNL1       -0.4584
     12 C         -10.2868  -18.7910   21.8686 C.2     1  UNL1        0.2203
     13 N         -10.8531  -18.9104   23.2525 N.2     1  UNL1       -0.2380
     14 C          -4.8226  -20.5569   20.1294 C.3     1  UNL1        0.0715
     15 C          -3.6508  -19.6338   20.2863 C.ar    1  UNL1        0.0586
     16 C          -2.4472  -19.8756   21.1481 C.ar    1  UNL1        0.1134
     17 N          -1.5293  -18.6980   21.0033 N.ar    1  UNL1       -0.2229
     18 C          -2.1658  -17.7284   20.0520 C.ar    1  UNL1        0.1748
     19 N          -3.4769  -18.3068   19.6089 N.ar    1  UNL1       -0.3379
     20 H          -4.1118  -17.8888   18.9833 H       1  UNL1        0.1672
@<TRIPOS>BOND
     1     7     8    1
     2     8     9    1
     3     8    10    1
     4    10    11    1
     5    11    12    1
     6    12     1    1
     7     1     2   ar
     8     2     3   ar
     9     3     4   ar
    10     4    14    1
    11    14    15    1
    12    15    16   ar
    13    16    17   ar
    14    17    18   ar
    15    18    19   ar
    16     4     5   ar
    17     5     6   ar
    18    12    13    2
    19    13     8    1
    20     6     1   ar
    21    19    15   ar
    22    19    20    1
@<TRIPOS>MOLECULE
*****
 20 22 0 0 0
SMALL
GASTEIGER

@<TRIPOS>ATOM
      1 C          -7.4803  -18.9536   21.6240 C.ar    1  UNL1        0.0528
      2 C          -6.9423  -19.9282   20.6188 C.ar    1  UNL1        0.0043
      3 C          -5.4702  -20.2107   20.5616 C.ar    1  UNL1       -0.0037
      4 C          -4.5363  -19.5186   21.5096 C.ar    1  UNL1       -0.0162
      5 C          -5.0744  -18.5439   22.5148 C.ar    1  UNL1       -0.0037
      6 C          -6.5464  -18.2614   22.5720 C.ar    1  UNL1        0.0043
      7 C         -12.6432  -17.6523   21.3178 C.3     1  UNL1        0.0283
      8 C         -11.1691  -17.8532   21.1264 C.3     1  UNL1        0.1279
      9 C         -11.3803  -17.0452   19.8804 C.3     1  UNL1        0.0283
     10 C         -11.2662  -18.6193   22.4124 C.3     1  UNL1        0.2292
     11 O          -9.8961  -19.1247   22.7553 O.2     1  UNL1       -0.4584
     12 C          -8.9524  -18.6710   21.6812 C.2     1  UNL1        0.2203
     13 N          -9.7392  -17.8852   20.6745 N.2     1  UNL1       -0.2380
     14 C          -3.0642  -19.8011   21.4523 C.3     1  UNL1        0.0715
     15 C          -2.1666  -18.9372   20.6169 C.ar    1  UNL1        0.0586
     16 C          -2.2578  -18.7479   19.1318 C.ar    1  UNL1        0.1134
     17 N          -1.1678  -17.8046   18.7169 N.ar    1  UNL1       -0.2229
     18 C          -0.4029  -17.4109   19.9458 C.ar    1  UNL1        0.1748
     19 N          -1.0203  -18.1109   21.1201 N.ar    1  UNL1       -0.3379
     20 H          -0.7249  -18.0404   22.0566 H       1  UNL1        0.1672
@<TRIPOS>BOND
     1     7     8    1
     2     8     9    1
     3     8    10    1
     4    10    11    1
     5    11    12    1
     6    12     1    1
     7     1     2   ar
     8     2     3   ar
     9     3     4   ar
    10     4    14    1
    11    14    15    1
    12    15    16   ar
    13    16    17   ar
    14    17    18   ar
    15    18    19   ar
    16     4     5   ar
    17     5     6   ar
    18    12    13    2
    19    13     8    1
    20     6     1   ar
    21    19    15   ar
    22    19    20    1
@<TRIPOS>MOLECULE
*****
 20 22 0 0 0
SMALL
GASTEIGER

@<TRIPOS>ATOM
      1 C          -6.1713  -19.3027   20.8103 C.ar    1  UNL1        0.0528
      2 C          -7.0159  -19.3895   19.5738 C.ar    1  UNL1        0.0043
      3 C          -8.5054  -19.5228   19.6907 C.ar    1  UNL1       -0.0037
      4 C          -9.1502  -19.5693   21.0442 C.ar    1  UNL1       -0.0162
      5 C          -8.3057  -19.4826   22.2808 C.ar    1  UNL1       -0.0037
      6 C          -6.8162  -19.3493   22.1638 C.ar    1  UNL1        0.0043
      7 C          -0.9773  -18.4680   19.9339 C.3     1  UNL1        0.0283
      8 C          -2.4769  -18.5044   19.9276 C.3     1  UNL1        0.1279
      9 C          -2.3376  -17.5769   18.7570 C.3     1  UNL1        0.0283
     10 C          -2.3026  -19.4243   21.0996 C.3     1  UNL1        0.2292
     11 O          -3.6653  -19.8353   21.5729 O.2     1  UNL1       -0.4584
     12 C          -4.6818  -19.1694   20.6934 C.2     1  UNL1        0.2203
     13 N          -3.9473  -18.3469   19.6766 N.2     1  UNL1       -0.2380
     14 C         -10.6398  -19.7026   21.1611 C.3     1  UNL1        0.0715
     15 C         -11.4659  -18.5290   21.5970 C.ar    1  UNL1        0.0586
     16 C         -11.7495  -17.3002   20.7849 C.ar    1  UNL1        0.1134
     17 N         -12.6124  -16.3898   21.6075 N.ar    1  UNL1       -0.2229
     18 C         -12.8620  -17.0560   22.9281 C.ar    1  UNL1        0.1748
     19 N         -12.1534  -18.3781   22.9216 N.ar    1  UNL1       -0.3379
     20 H         -12.1417  -19.0319   23.6575 H       1  UNL1        0.1672
@<TRIPOS>BOND
     1     7     8    1
     2     8     9    1
     3     8    10    1
     4    10    11    1
     5    11    12    1
     6    12     1    1
     7     1     2   ar
     8     2     3   ar
     9     3     4   ar
    10     4    14    1
    11    14    15    1
    12    15    16   ar
    13    16    17   ar
    14    17    18   ar
    15    18    19   ar
    16     4     5   ar
    17     5     6   ar
    18    12    13    2
    19    13     8    1
    20     6     1   ar
    21    19    15   ar
    22    19    20    1
@<TRIPOS>MOLECULE
*****
 20 22 0 0 0
SMALL
GASTEIGER

@<TRIPOS>ATOM
      1 C          -7.6257  -17.3413   22.8893 C.ar    1  UNL1        0.0528
      2 C          -6.8342  -16.3143   23.6435 C.ar    1  UNL1        0.0043
      3 C          -5.3431  -16.4422   23.7445 C.ar    1  UNL1       -0.0037
      4 C          -4.6435  -17.5972   23.0914 C.ar    1  UNL1       -0.0162
      5 C          -5.4350  -18.6242   22.3373 C.ar    1  UNL1       -0.0037
      6 C          -6.9260  -18.4963   22.2362 C.ar    1  UNL1        0.0043
      7 C         -12.9583  -17.3018   22.9536 C.3     1  UNL1        0.0283
      8 C         -11.4923  -17.5381   23.1655 C.3     1  UNL1        0.1279
      9 C         -11.9605  -18.5318   24.1870 C.3     1  UNL1        0.0283
     10 C         -11.3306  -16.4950   22.0998 C.3     1  UNL1        0.2292
     11 O          -9.8625  -16.2943   21.8666 O.2     1  UNL1       -0.4584
     12 C          -9.1168  -17.2134   22.7882 C.2     1  UNL1        0.2203
     13 N         -10.1241  -17.9821   23.5910 N.2     1  UNL1       -0.2380
     14 C          -3.1523  -17.7251   23.1925 C.3     1  UNL1        0.0715
     15 C          -2.3128  -17.7161   21.9495 C.ar    1  UNL1        0.0586
     16 C          -1.6872  -16.5084   21.3169 C.ar    1  UNL1        0.1134
     17 N          -0.9393  -16.9590   20.0973 N.ar    1  UNL1       -0.2229
     18 C          -1.1027  -18.4452   19.9760 C.ar    1  UNL1        0.1748
     19 N          -1.9516  -18.9130   21.1207 N.ar    1  UNL1       -0.3379
     20 H          -2.2239  -19.8425   21.2972 H       1  UNL1        0.1672
@<TRIPOS>BOND
     1     7     8    1
     2     8     9    1
     3     8    10    1
     4    10    11    1
     5    11    12    1
     6    12     1    1
     7     1     2   ar
     8     2     3   ar
     9     3     4   ar
    10     4    14    1
    11    14    15    1
    12    15    16   ar
    13    16    17   ar
    14    17    18   ar
    15    18    19   ar
    16     4     5   ar
    17     5     6   ar
    18    12    13    2
    19    13     8    1
    20     6     1   ar
    21    19    15   ar
    22    19    20    1
@<TRIPOS>MOLECULE
*****
 20 22 0 0 0
SMALL
GASTEIGER

@<TRIPOS>ATOM
      1 C         -13.9818   -7.5027   18.5540 C.ar    1  UNL1        0.0528
      2 C         -14.1034   -6.2993   19.4411 C.ar    1  UNL1        0.0043
      3 C         -12.9448   -5.3587   19.5920 C.ar    1  UNL1       -0.0037
      4 C         -11.6646   -5.6215   18.8558 C.ar    1  UNL1       -0.0162
      5 C         -11.5430   -6.8249   17.9687 C.ar    1  UNL1       -0.0037
      6 C         -12.7016   -7.7655   17.8178 C.ar    1  UNL1        0.0043
      7 C         -18.4224  -10.3733   17.8586 C.3     1  UNL1        0.0283
      8 C         -17.3618   -9.3180   17.9658 C.3     1  UNL1        0.1279
      9 C         -18.4604   -8.3928   17.5332 C.3     1  UNL1        0.0283
     10 C         -16.4850  -10.4639   18.3759 C.3     1  UNL1        0.2292
     11 O         -15.1121   -9.9233   18.6462 O.2     1  UNL1       -0.4584
     12 C         -15.1405   -8.4434   18.4031 C.2     1  UNL1        0.2203
     13 N         -16.5309   -8.0693   17.9826 N.2     1  UNL1       -0.2380
     14 C         -10.5059   -4.6808   19.0068 C.3     1  UNL1        0.0715
     15 C         -10.4960   -3.3778   18.2638 C.ar    1  UNL1        0.0586
     16 C         -10.1287   -3.1878   16.8220 C.ar    1  UNL1        0.1134
     17 N         -10.2574   -1.7286   16.4993 N.ar    1  UNL1       -0.2229
     18 C         -10.7042   -1.0167   17.7418 C.ar    1  UNL1        0.1748
     19 N         -10.8517   -2.0360   18.8323 N.ar    1  UNL1       -0.3379
     20 H         -11.1326   -1.8560   19.7585 H       1  UNL1        0.1672
@<TRIPOS>BOND
     1     7     8    1
     2     8     9    1
     3     8    10    1
     4    10    11    1
     5    11    12    1
     6    12     1    1
     7     1     2   ar
     8     2     3   ar
     9     3     4   ar
    10     4    14    1
    11    14    15    1
    12    15    16   ar
    13    16    17   ar
    14    17    18   ar
    15    18    19   ar
    16     4     5   ar
    17     5     6   ar
    18    12    13    2
    19    13     8    1
    20     6     1   ar
    21    19    15   ar
    22    19    20    1
@<TRIPOS>MOLECULE
*****
 20 22 0 0 0
SMALL
GASTEIGER

@<TRIPOS>ATOM
      1 C          -5.8441  -17.3312   22.7523 C.ar    1  UNL1        0.0528
      2 C          -6.7935  -18.3705   22.2344 C.ar    1  UNL1        0.0043
      3 C          -8.2238  -18.3715   22.6863 C.ar    1  UNL1       -0.0037
      4 C          -8.7046  -17.3331   23.6561 C.ar    1  UNL1       -0.0162
      5 C          -7.7552  -16.2937   24.1739 C.ar    1  UNL1       -0.0037
      6 C          -6.3249  -16.2928   23.7220 C.ar    1  UNL1        0.0043
      7 C          -0.8862  -17.8273   20.8508 C.3     1  UNL1        0.0283
      8 C          -2.3340  -17.9604   21.2195 C.3     1  UNL1        0.1279
      9 C          -2.2740  -19.1962   20.3714 C.3     1  UNL1        0.0283
     10 C          -2.0913  -16.6968   21.9906 C.3     1  UNL1        0.2292
     11 O          -3.3766  -16.3073   22.6585 O.2     1  UNL1       -0.4584
     12 C          -4.4137  -17.3302   22.3004 C.2     1  UNL1        0.2203
     13 N          -3.7693  -18.3518   21.4110 N.2     1  UNL1       -0.2380
     14 C         -10.1350  -17.3341   24.1080 C.3     1  UNL1        0.0715
     15 C         -11.2406  -17.2463   23.0981 C.ar    1  UNL1        0.0586
     16 C         -12.3601  -18.2302   22.9287 C.ar    1  UNL1        0.1134
     17 N         -13.2323  -17.7513   21.8063 N.ar    1  UNL1       -0.2229
     18 C         -12.6518  -16.4714   21.2819 C.ar    1  UNL1        0.1748
     19 N         -11.4209  -16.1593   22.0803 N.ar    1  UNL1       -0.3379
     20 H         -10.8344  -15.3782   21.9579 H       1  UNL1        0.1672
@<TRIPOS>BOND
     1     7     8    1
     2     8     9    1
     3     8    10    1
     4    10    11    1
     5    11    12    1
     6    12     1    1
     7     1     2   ar
     8     2     3   ar
     9     3     4   ar
    10     4    14    1
    11    14    15    1
    12    15    16   ar
    13    16    17   ar
    14    17    18   ar
    15    18    19   ar
    16     4     5   ar
    17     5     6   ar
    18    12    13    2
    19    13     8    1
    20     6     1   ar
    21    19    15   ar
    22    19    20    1
@<TRIPOS>MOLECULE
*****
 20 22 0 0 0
SMALL
GASTEIGER

@<TRIPOS>ATOM
      1 C         -13.9195   -6.6935   18.4263 C.ar    1  UNL1        0.0528
      2 C         -13.7716   -8.1416   18.0642 C.ar    1  UNL1        0.0043
      3 C         -14.8312   -9.1260   18.4617 C.ar    1  UNL1       -0.0037
      4 C         -16.0387   -8.6624   19.2213 C.ar    1  UNL1       -0.0162
      5 C         -16.1866   -7.2143   19.5834 C.ar    1  UNL1       -0.0037
      6 C         -15.1269   -6.2299   19.1859 C.ar    1  UNL1        0.0043
      7 C          -9.7583   -3.6262   17.1152 C.3     1  UNL1        0.0283
      8 C         -10.7018   -4.7140   17.5352 C.3     1  UNL1        0.1279
      9 C          -9.4497   -5.5264   17.6838 C.3     1  UNL1        0.0283
     10 C         -11.7567   -3.6740   17.2988 C.3     1  UNL1        0.2292
     11 O         -13.0904   -4.2890   17.6038 O.2     1  UNL1       -0.4584
     12 C         -12.8598   -5.7090   18.0287 C.2     1  UNL1        0.2203
     13 N         -11.3836   -5.9716   17.9863 N.2     1  UNL1       -0.2380
     14 C         -17.0984   -9.6469   19.6188 C.3     1  UNL1        0.0715
     15 C         -18.3528   -9.7678   18.8054 C.ar    1  UNL1        0.0586
     16 C         -19.3495   -8.6753   18.5543 C.ar    1  UNL1        0.1134
     17 N         -20.4436   -9.2347   17.6940 N.ar    1  UNL1       -0.2229
     18 C         -20.1230  -10.6730   17.4135 C.ar    1  UNL1        0.1748
     19 N         -18.8309  -11.0025   18.1003 N.ar    1  UNL1       -0.3379
     20 H         -18.3764  -11.8757   18.0902 H       1  UNL1        0.1672
@<TRIPOS>BOND
     1     7     8    1
     2     8     9    1
     3     8    10    1
     4    10    11    1
     5    11    12    1
     6    12     1    1
     7     1     2   ar
     8     2     3   ar
     9     3     4   ar
    10     4    14    1
    11    14    15    1
    12    15    16   ar
    13    16    17   ar
    14    17    18   ar
    15    18    19   ar
    16     4     5   ar
    17     5     6   ar
    18    12    13    2
    19    13     8    1
    20     6     1   ar
    21    19    15   ar
    22    19    20    1
@<TRIPOS>MOLECULE
*****
 20 22 0 0 0
SMALL
GASTEIGER

@<TRIPOS>ATOM
      1 C           1.1936    2.7517   32.2078 C.ar    1  UNL1        0.0528
      2 C           2.0920    1.8217   32.9678 C.ar    1  UNL1        0.0043
      3 C           2.5350    2.1751   34.3567 C.ar    1  UNL1       -0.0037
      4 C           2.0794    3.4585   34.9854 C.ar    1  UNL1       -0.0162
      5 C           1.1809    4.3885   34.2254 C.ar    1  UNL1       -0.0037
      6 C           0.7380    4.0351   32.8366 C.ar    1  UNL1        0.0043
      7 C          -0.6372    1.0157   27.5092 C.3     1  UNL1        0.0283
      8 C          -0.2669    1.2382   28.9456 C.3     1  UNL1        0.1279
      9 C          -1.0161   -0.0413   29.1732 C.3     1  UNL1        0.0283
     10 C           0.4048    2.4712   28.4177 C.3     1  UNL1        0.2292
     11 O           1.0336    3.1882   29.5755 O.2     1  UNL1       -0.4584
     12 C           0.7506    2.3984   30.8189 C.2     1  UNL1        0.2203
     13 N          -0.0532    1.1932   30.4296 N.2     1  UNL1       -0.2380
     14 C           2.5224    3.8118   36.3743 C.3     1  UNL1        0.0715
     15 C           2.1992    2.8988   37.5197 C.ar    1  UNL1        0.0586
     16 C           3.1093    1.8581   38.1015 C.ar    1  UNL1        0.1134
     17 N           2.3818    1.1823   39.2258 N.ar    1  UNL1       -0.2229
     18 C           1.0220    1.8054   39.3388 C.ar    1  UNL1        0.1748
     19 N           0.9092    2.8663   38.2844 N.ar    1  UNL1       -0.3379
     20 H           0.1259    3.4404   38.1226 H       1  UNL1        0.1672
@<TRIPOS>BOND
     1     7     8    1
     2     8     9    1
     3     8    10    1
     4    10    11    1
     5    11    12    1
     6    12     1    1
     7     1     2   ar
     8     2     3   ar
     9     3     4   ar
    10     4    14    1
    11    14    15    1
    12    15    16   ar
    13    16    17   ar
    14    17    18   ar
    15    18    19   ar
    16     4     5   ar
    17     5     6   ar
    18    12    13    2
    19    13     8    1
    20     6     1   ar
    21    19    15   ar
    22    19    20    1
