@<TRIPOS>MOLECULE
*****
 19 20 0 0 0
SMALL
GASTEIGER

@<TRIPOS>ATOM
      1 C          -9.4403  -17.0182   22.0491 C.3     1  UNL1        0.0959
      2 C         -13.2120  -18.1864   24.2078 C.ar    1  UNL1        0.0140
      3 C         -11.9044  -18.8150   24.5888 C.ar    1  UNL1        0.0009
      4 C         -10.6472  -18.4255   23.8692 C.ar    1  UNL1       -0.0029
      5 C         -10.6975  -17.4076   22.7687 C.ar    1  UNL1       -0.0064
      6 C         -12.0051  -16.7791   22.3877 C.ar    1  UNL1       -0.0029
      7 C         -13.2623  -17.1685   23.1072 C.ar    1  UNL1        0.0009
      8 O         -14.4634  -18.7259   26.4197 O.co2   1  UNL1       -0.5446
      9 C         -14.4692  -18.5758   24.9273 C.2     1  UNL1        0.0729
     10 O         -15.7323  -18.8152   24.1544 O.co2   1  UNL1       -0.5446
     11 N          -8.9026  -15.6240   22.1797 N.3     1  UNL1       -0.2900
     12 H          -9.5612  -15.1078   22.7630 H       1  UNL1        0.1239
     13 C          -7.5389  -15.3975   22.7618 C.3     1  UNL1        0.0959
     14 C          -7.3470  -15.4096   24.2495 C.ar    1  UNL1       -0.0064
     15 C          -8.5388  -15.4576   25.1591 C.ar    1  UNL1       -0.0029
     16 C          -8.3469  -15.4696   26.6468 C.ar    1  UNL1       -0.0003
     17 C          -6.9632  -15.4337   27.2248 C.ar    1  UNL1       -0.0000
     18 C          -5.7714  -15.3858   26.3151 C.ar    1  UNL1       -0.0003
     19 C          -5.9633  -15.3737   24.8276 C.ar    1  UNL1       -0.0029
@<TRIPOS>UNITY_ATOM_ATTR
8 1
charge -1
@<TRIPOS>BOND
     1     8     9   ar
     2     9    10   ar
     3     9     2    1
     4     2     3   ar
     5     3     4   ar
     6     4     5   ar
     7     5     1    1
     8     1    11    1
     9    11    13    1
    10    13    14    1
    11    14    15   ar
    12    15    16   ar
    13    16    17   ar
    14    17    18   ar
    15    18    19   ar
    16     5     6   ar
    17     6     7   ar
    18     7     2   ar
    19    19    14   ar
    20    11    12    1
@<TRIPOS>MOLECULE
*****
 19 20 0 0 0
SMALL
GASTEIGER

@<TRIPOS>ATOM
      1 C          -6.6141  -20.1326   21.9891 C.3     1  UNL1        0.0959
      2 C          -2.5871  -18.5152   20.7987 C.ar    1  UNL1        0.0140
      3 C          -3.0492  -18.4043   22.2214 C.ar    1  UNL1        0.0009
      4 C          -4.3915  -18.9434   22.6182 C.ar    1  UNL1       -0.0029
      5 C          -5.2717  -19.5935   21.5923 C.ar    1  UNL1       -0.0064
      6 C          -4.8096  -19.7045   20.1696 C.ar    1  UNL1       -0.0029
      7 C          -3.4673  -19.1653   19.7728 C.ar    1  UNL1        0.0009
      8 O          -0.2150  -18.8906   19.8074 O.co2   1  UNL1       -0.5446
      9 C          -1.2447  -17.9761   20.4019 C.2     1  UNL1        0.0729
     10 O          -0.9320  -16.5224   20.5995 O.co2   1  UNL1       -0.5446
     11 N          -7.7607  -19.1938   22.2209 N.3     1  UNL1       -0.2900
     12 H          -7.4112  -18.2524   22.0422 H       1  UNL1        0.1239
     13 C          -9.0252  -19.3440   21.4281 C.3     1  UNL1        0.0959
     14 C         -10.3255  -18.8498   21.9894 C.ar    1  UNL1       -0.0064
     15 C         -10.5886  -18.9396   23.4633 C.ar    1  UNL1       -0.0029
     16 C         -11.8890  -18.4454   24.0246 C.ar    1  UNL1       -0.0003
     17 C         -12.9261  -17.8613   23.1118 C.ar    1  UNL1       -0.0000
     18 C         -12.6629  -17.7715   21.6377 C.ar    1  UNL1       -0.0003
     19 C         -11.3626  -18.2657   21.0766 C.ar    1  UNL1       -0.0029
@<TRIPOS>UNITY_ATOM_ATTR
8 1
charge -1
@<TRIPOS>BOND
     1     8     9   ar
     2     9    10   ar
     3     9     2    1
     4     2     3   ar
     5     3     4   ar
     6     4     5   ar
     7     5     1    1
     8     1    11    1
     9    11    13    1
    10    13    14    1
    11    14    15   ar
    12    15    16   ar
    13    16    17   ar
    14    17    18   ar
    15    18    19   ar
    16     5     6   ar
    17     6     7   ar
    18     7     2   ar
    19    19    14   ar
    20    11    12    1
@<TRIPOS>MOLECULE
*****
 19 20 0 0 0
SMALL
GASTEIGER

@<TRIPOS>ATOM
      1 C          -6.6196  -20.0462   21.9964 C.3     1  UNL1        0.0959
      2 C          -2.5760  -18.4906   20.7800 C.ar    1  UNL1        0.0140
      3 C          -3.4951  -19.0769   19.7497 C.ar    1  UNL1        0.0009
      4 C          -4.8429  -19.5954   20.1551 C.ar    1  UNL1       -0.0029
      5 C          -5.2717  -19.5277   21.5909 C.ar    1  UNL1       -0.0064
      6 C          -4.3526  -18.9414   22.6212 C.ar    1  UNL1       -0.0029
      7 C          -3.0048  -18.4229   22.2157 C.ar    1  UNL1        0.0009
      8 O          -0.2048  -18.9087   19.8039 O.co2   1  UNL1       -0.5446
      9 C          -1.2281  -17.9721   20.3745 C.2     1  UNL1        0.0729
     10 O          -0.9036  -16.5170   20.5396 O.co2   1  UNL1       -0.5446
     11 N          -7.7742  -19.1000   22.1426 N.3     1  UNL1       -0.2900
     12 H          -7.4410  -18.1814   21.8501 H       1  UNL1        0.1239
     13 C          -9.0514  -19.3546   21.3984 C.3     1  UNL1        0.0959
     14 C         -10.3517  -18.8416   21.9427 C.ar    1  UNL1       -0.0064
     15 C         -11.3691  -18.2444   21.0163 C.ar    1  UNL1       -0.0029
     16 C         -12.6694  -17.7314   21.5606 C.ar    1  UNL1       -0.0003
     17 C         -12.9522  -17.8156   23.0313 C.ar    1  UNL1       -0.0000
     18 C         -11.9347  -18.4129   23.9577 C.ar    1  UNL1       -0.0003
     19 C         -10.6345  -18.9258   23.4134 C.ar    1  UNL1       -0.0029
@<TRIPOS>UNITY_ATOM_ATTR
8 1
charge -1
@<TRIPOS>BOND
     1     8     9   ar
     2     9    10   ar
     3     9     2    1
     4     2     3   ar
     5     3     4   ar
     6     4     5   ar
     7     5     1    1
     8     1    11    1
     9    11    13    1
    10    13    14    1
    11    14    15   ar
    12    15    16   ar
    13    16    17   ar
    14    17    18   ar
    15    18    19   ar
    16     5     6   ar
    17     6     7   ar
    18     7     2   ar
    19    19    14   ar
    20    11    12    1
@<TRIPOS>MOLECULE
*****
 19 20 0 0 0
SMALL
GASTEIGER

@<TRIPOS>ATOM
      1 C          -8.0648  -18.0597   22.4494 C.3     1  UNL1        0.0959
      2 C          -3.9462  -19.1050   20.9682 C.ar    1  UNL1        0.0140
      3 C          -4.1308  -18.5749   22.3591 C.ar    1  UNL1        0.0009
      4 C          -5.5037  -18.2265   22.8529 C.ar    1  UNL1       -0.0029
      5 C          -6.6919  -18.4081   21.9557 C.ar    1  UNL1       -0.0064
      6 C          -6.5073  -18.9383   20.5647 C.ar    1  UNL1       -0.0029
      7 C          -5.1344  -19.2867   20.0710 C.ar    1  UNL1        0.0009
      8 O          -2.0848  -18.9046   19.1668 O.co2   1  UNL1       -0.5446
      9 C          -2.5733  -19.4535   20.4745 C.2     1  UNL1        0.0729
     10 O          -1.6889  -20.3508   21.2884 O.co2   1  UNL1       -0.5446
     11 N          -8.5935  -16.6669   22.2748 N.3     1  UNL1       -0.2900
     12 H          -9.5283  -16.6535   22.6828 H       1  UNL1        0.1239
     13 C          -7.8491  -15.5033   22.8596 C.3     1  UNL1        0.0959
     14 C          -7.5096  -15.4879   24.3207 C.ar    1  UNL1       -0.0064
     15 C          -6.0887  -15.2901   24.7585 C.ar    1  UNL1       -0.0029
     16 C          -5.7492  -15.2747   26.2195 C.ar    1  UNL1       -0.0003
     17 C          -6.8308  -15.4571   27.2427 C.ar    1  UNL1       -0.0000
     18 C          -8.2518  -15.6549   26.8049 C.ar    1  UNL1       -0.0003
     19 C          -8.5912  -15.6703   25.3439 C.ar    1  UNL1       -0.0029
@<TRIPOS>UNITY_ATOM_ATTR
8 1
charge -1
@<TRIPOS>BOND
     1     8     9   ar
     2     9    10   ar
     3     9     2    1
     4     2     3   ar
     5     3     4   ar
     6     4     5   ar
     7     5     1    1
     8     1    11    1
     9    11    13    1
    10    13    14    1
    11    14    15   ar
    12    15    16   ar
    13    16    17   ar
    14    17    18   ar
    15    18    19   ar
    16     5     6   ar
    17     6     7   ar
    18     7     2   ar
    19    19    14   ar
    20    11    12    1
@<TRIPOS>MOLECULE
*****
 19 20 0 0 0
SMALL
GASTEIGER

@<TRIPOS>ATOM
      1 C          -7.1799  -16.1745   23.9421 C.3     1  UNL1        0.0959
      2 C          -4.3461  -18.9941   21.8759 C.ar    1  UNL1        0.0140
      3 C          -5.8206  -19.0901   21.6180 C.ar    1  UNL1        0.0009
      4 C          -6.7652  -18.1503   22.3068 C.ar    1  UNL1       -0.0029
      5 C          -6.2353  -17.1144   23.2534 C.ar    1  UNL1       -0.0064
      6 C          -4.7608  -17.0183   23.5112 C.ar    1  UNL1       -0.0029
      7 C          -3.8162  -17.9582   22.8225 C.ar    1  UNL1        0.0009
      8 O          -3.8693  -20.7397   20.0117 O.co2   1  UNL1       -0.5446
      9 C          -3.4014  -19.9339   21.1871 C.2     1  UNL1        0.0729
     10 O          -1.9890  -20.0680   21.6738 O.co2   1  UNL1       -0.5446
     11 N          -8.3989  -15.6763   23.2239 N.3     1  UNL1       -0.2900
     12 H          -8.2082  -15.7627   22.2256 H       1  UNL1        0.1239
     13 C          -9.7301  -16.3230   23.4681 C.3     1  UNL1        0.0959
     14 C         -10.1596  -17.4934   22.6338 C.ar    1  UNL1       -0.0064
     15 C         -10.3997  -17.3185   21.1636 C.ar    1  UNL1       -0.0029
     16 C         -10.8293  -18.4888   20.3293 C.ar    1  UNL1       -0.0003
     17 C         -11.0187  -19.8340   20.9655 C.ar    1  UNL1       -0.0000
     18 C         -10.7786  -20.0088   22.4358 C.ar    1  UNL1       -0.0003
     19 C         -10.3490  -18.8385   23.2700 C.ar    1  UNL1       -0.0029
@<TRIPOS>UNITY_ATOM_ATTR
8 1
charge -1
@<TRIPOS>BOND
     1     8     9   ar
     2     9    10   ar
     3     9     2    1
     4     2     3   ar
     5     3     4   ar
     6     4     5   ar
     7     5     1    1
     8     1    11    1
     9    11    13    1
    10    13    14    1
    11    14    15   ar
    12    15    16   ar
    13    16    17   ar
    14    17    18   ar
    15    18    19   ar
    16     5     6   ar
    17     6     7   ar
    18     7     2   ar
    19    19    14   ar
    20    11    12    1
@<TRIPOS>MOLECULE
*****
 19 20 0 0 0
SMALL
GASTEIGER

@<TRIPOS>ATOM
      1 C          -8.5963  -19.4070   21.6320 C.3     1  UNL1        0.0959
      2 C          -4.1498  -19.5165   20.9492 C.ar    1  UNL1        0.0140
      3 C          -5.0625  -20.3273   20.0779 C.ar    1  UNL1        0.0009
      4 C          -6.5447  -20.2908   20.3055 C.ar    1  UNL1       -0.0029
      5 C          -7.1141  -19.4435   21.4044 C.ar    1  UNL1       -0.0064
      6 C          -6.2013  -18.6326   22.2758 C.ar    1  UNL1       -0.0029
      7 C          -4.7192  -18.6691   22.0482 C.ar    1  UNL1        0.0009
      8 O          -2.0602  -18.7548   19.6063 O.co2   1  UNL1       -0.5446
      9 C          -2.6676  -19.5530   20.7216 C.2     1  UNL1        0.0729
     10 O          -1.7928  -20.3876   21.6093 O.co2   1  UNL1       -0.5446
     11 N          -9.1448  -19.5289   23.0228 N.3     1  UNL1       -0.2900
     12 H          -8.3463  -19.6605   23.6437 H       1  UNL1        0.1239
     13 C          -9.9674  -18.4178   23.6047 C.3     1  UNL1        0.0959
     14 C          -9.3468  -17.4510   24.5692 C.ar    1  UNL1       -0.0064
     15 C          -8.7668  -16.1611   24.0694 C.ar    1  UNL1       -0.0029
     16 C          -8.1462  -15.1943   25.0339 C.ar    1  UNL1       -0.0003
     17 C          -8.1056  -15.5174   26.4981 C.ar    1  UNL1       -0.0000
     18 C          -8.6857  -16.8073   26.9979 C.ar    1  UNL1       -0.0003
     19 C          -9.3062  -17.7741   26.0334 C.ar    1  UNL1       -0.0029
@<TRIPOS>UNITY_ATOM_ATTR
8 1
charge -1
@<TRIPOS>BOND
     1     8     9   ar
     2     9    10   ar
     3     9     2    1
     4     2     3   ar
     5     3     4   ar
     6     4     5   ar
     7     5     1    1
     8     1    11    1
     9    11    13    1
    10    13    14    1
    11    14    15   ar
    12    15    16   ar
    13    16    17   ar
    14    17    18   ar
    15    18    19   ar
    16     5     6   ar
    17     6     7   ar
    18     7     2   ar
    19    19    14   ar
    20    11    12    1
@<TRIPOS>MOLECULE
*****
 19 20 0 0 0
SMALL
GASTEIGER

@<TRIPOS>ATOM
      1 C          -6.6817  -15.5099   24.1411 C.3     1  UNL1        0.0959
      2 C         -10.0556  -18.0144   22.5304 C.ar    1  UNL1        0.0140
      3 C         -10.3061  -17.0508   23.6523 C.ar    1  UNL1        0.0009
      4 C          -9.1815  -16.2160   24.1892 C.ar    1  UNL1       -0.0029
      5 C          -7.8063  -16.3447   23.6042 C.ar    1  UNL1       -0.0064
      6 C          -7.5558  -17.3083   22.4823 C.ar    1  UNL1       -0.0029
      7 C          -8.6804  -18.1432   21.9454 C.ar    1  UNL1        0.0009
      8 O         -12.3467  -18.1911   21.3183 O.co2   1  UNL1       -0.5446
      9 C         -11.1802  -18.8493   21.9935 C.2     1  UNL1        0.0729
     10 O         -11.1383  -20.3422   22.1318 O.co2   1  UNL1       -0.5446
     11 N          -5.3146  -15.6126   23.5325 N.3     1  UNL1       -0.2900
     12 H          -4.8429  -14.7272   23.7170 H       1  UNL1        0.1239
     13 C          -4.3791  -16.7008   23.9691 C.3     1  UNL1        0.0959
     14 C          -3.6568  -17.5247   22.9445 C.ar    1  UNL1       -0.0064
     15 C          -2.4760  -16.9518   22.2183 C.ar    1  UNL1       -0.0029
     16 C          -1.7536  -17.7756   21.1938 C.ar    1  UNL1       -0.0003
     17 C          -2.2122  -19.1723   20.8955 C.ar    1  UNL1       -0.0000
     18 C          -3.3930  -19.7452   21.6218 C.ar    1  UNL1       -0.0003
     19 C          -4.1153  -18.9214   22.6463 C.ar    1  UNL1       -0.0029
@<TRIPOS>UNITY_ATOM_ATTR
8 1
charge -1
@<TRIPOS>BOND
     1     8     9   ar
     2     9    10   ar
     3     9     2    1
     4     2     3   ar
     5     3     4   ar
     6     4     5   ar
     7     5     1    1
     8     1    11    1
     9    11    13    1
    10    13    14    1
    11    14    15   ar
    12    15    16   ar
    13    16    17   ar
    14    17    18   ar
    15    18    19   ar
    16     5     6   ar
    17     6     7   ar
    18     7     2   ar
    19    19    14   ar
    20    11    12    1
@<TRIPOS>MOLECULE
*****
 19 20 0 0 0
SMALL
GASTEIGER

@<TRIPOS>ATOM
      1 C          -8.2890  -18.4085   21.8147 C.3     1  UNL1        0.0959
      2 C          -3.9533  -19.1371   20.8549 C.ar    1  UNL1        0.0140
      3 C          -4.3584  -18.7469   22.2454 C.ar    1  UNL1        0.0009
      4 C          -5.8036  -18.5040   22.5653 C.ar    1  UNL1       -0.0029
      5 C          -6.8438  -18.6514   21.4947 C.ar    1  UNL1       -0.0064
      6 C          -6.4388  -19.0416   20.1042 C.ar    1  UNL1       -0.0029
      7 C          -4.9935  -19.2845   19.7843 C.ar    1  UNL1        0.0009
      8 O          -1.8686  -18.6774   19.3743 O.co2   1  UNL1       -0.5446
      9 C          -2.5081  -19.3800   20.5349 C.2     1  UNL1        0.0729
     10 O          -1.7025  -20.3255   21.3757 O.co2   1  UNL1       -0.5446
     11 N          -8.7258  -18.2554   23.2414 N.3     1  UNL1       -0.2900
     12 H          -9.0716  -17.3011   23.3427 H       1  UNL1        0.1239
     13 C          -9.7816  -19.1604   23.8038 C.3     1  UNL1        0.0959
     14 C         -11.2190  -18.7314   23.7963 C.ar    1  UNL1       -0.0064
     15 C         -11.8009  -18.0800   22.5768 C.ar    1  UNL1       -0.0029
     16 C         -13.2383  -17.6510   22.5693 C.ar    1  UNL1       -0.0003
     17 C         -14.0936  -17.8734   23.7813 C.ar    1  UNL1       -0.0000
     18 C         -13.5117  -18.5248   25.0008 C.ar    1  UNL1       -0.0003
     19 C         -12.0744  -18.9538   25.0082 C.ar    1  UNL1       -0.0029
@<TRIPOS>UNITY_ATOM_ATTR
8 1
charge -1
@<TRIPOS>BOND
     1     8     9   ar
     2     9    10   ar
     3     9     2    1
     4     2     3   ar
     5     3     4   ar
     6     4     5   ar
     7     5     1    1
     8     1    11    1
     9    11    13    1
    10    13    14    1
    11    14    15   ar
    12    15    16   ar
    13    16    17   ar
    14    17    18   ar
    15    18    19   ar
    16     5     6   ar
    17     6     7   ar
    18     7     2   ar
    19    19    14   ar
    20    11    12    1
@<TRIPOS>MOLECULE
*****
 19 20 0 0 0
SMALL
GASTEIGER

@<TRIPOS>ATOM
      1 C          -6.5693  -15.7149   23.7259 C.3     1  UNL1        0.0959
      2 C         -10.7448  -17.0254   22.6780 C.ar    1  UNL1        0.0140
      3 C          -9.9191  -16.2777   21.6735 C.ar    1  UNL1        0.0009
      4 C          -8.5272  -15.8408   22.0228 C.ar    1  UNL1       -0.0029
      5 C          -7.9611  -16.1517   23.3766 C.ar    1  UNL1       -0.0064
      6 C          -8.7868  -16.8994   24.3811 C.ar    1  UNL1       -0.0029
      7 C         -10.1786  -17.3363   24.0318 C.ar    1  UNL1        0.0009
      8 O         -13.0648  -17.9411   23.4054 O.co2   1  UNL1       -0.5446
      9 C         -12.1366  -17.4622   22.3288 C.2     1  UNL1        0.0729
     10 O         -12.6002  -17.4202   20.9029 O.co2   1  UNL1       -0.5446
     11 N          -5.5911  -16.7043   24.2864 N.3     1  UNL1       -0.2900
     12 H          -6.0910  -17.5877   24.3873 H       1  UNL1        0.1239
     13 C          -4.3224  -17.0068   23.5455 C.3     1  UNL1        0.0959
     14 C          -4.2826  -18.1326   22.5550 C.ar    1  UNL1       -0.0064
     15 C          -5.5560  -18.7977   22.1239 C.ar    1  UNL1       -0.0029
     16 C          -5.5162  -19.9235   21.1334 C.ar    1  UNL1       -0.0003
     17 C          -4.2028  -20.3842   20.5741 C.ar    1  UNL1       -0.0000
     18 C          -2.9293  -19.7191   21.0053 C.ar    1  UNL1       -0.0003
     19 C          -2.9692  -18.5933   21.9957 C.ar    1  UNL1       -0.0029
@<TRIPOS>UNITY_ATOM_ATTR
8 1
charge -1
@<TRIPOS>BOND
     1     8     9   ar
     2     9    10   ar
     3     9     2    1
     4     2     3   ar
     5     3     4   ar
     6     4     5   ar
     7     5     1    1
     8     1    11    1
     9    11    13    1
    10    13    14    1
    11    14    15   ar
    12    15    16   ar
    13    16    17   ar
    14    17    18   ar
    15    18    19   ar
    16     5     6   ar
    17     6     7   ar
    18     7     2   ar
    19    19    14   ar
    20    11    12    1
