@<TRIPOS>MOLECULE
*****
 23 25 0 0 0
SMALL
GASTEIGER

@<TRIPOS>ATOM
      1 C          -7.2684  -15.7568   25.0551 C.ar    1  UNL1        0.1593
      2 C          -8.7679  -15.7241   25.0340 C.ar    1  UNL1        0.0418
      3 C          -9.2305  -16.4637   23.8137 C.ar    1  UNL1        0.0394
      4 C         -10.6001  -16.7544   23.2754 C.ar    1  UNL1        0.0099
      5 C         -10.7561  -17.5349   22.0040 C.ar    1  UNL1        0.0360
      6 BR        -12.1257  -17.8256   21.4657 Br      1  UNL1       -0.0490
      7 C          -9.5426  -18.0246   21.2709 C.ar    1  UNL1        0.0241
      8 C          -8.1730  -17.7339   21.8092 C.ar    1  UNL1        0.0802
      9 C          -8.0170  -16.9534   23.0806 C.ar    1  UNL1        0.1583
     10 O          -6.8043  -16.5165   23.8478 O.2     1  UNL1       -0.4511
     11 O          -6.8081  -15.1528   27.5397 O.co2   1  UNL1       -0.5415
     12 C          -6.3876  -15.1383   26.0999 C.2     1  UNL1        0.1076
     13 O          -5.0863  -14.5053   25.7050 O.co2   1  UNL1       -0.5415
     14 N          -6.9594  -18.2236   21.0761 N.pl3   1  UNL1       -0.3302
     15 H          -6.7316  -17.8480   20.1951 H       1  UNL1        0.1469
     16 C          -6.0930  -19.2858   21.6854 C.3     1  UNL1        0.0871
     17 C          -4.6106  -19.0790   21.7844 C.3     1  UNL1        0.0223
     18 C          -4.0512  -18.1410   22.8127 C.3     1  UNL1        0.0188
     19 C          -2.5689  -17.9342   22.9117 C.3     1  UNL1        0.0686
     20 N          -1.6459  -18.6653   21.9824 N.3     1  UNL1       -0.2975
     21 C          -2.2052  -19.6033   20.9541 C.3     1  UNL1        0.0686
     22 C          -3.6876  -19.8101   20.8551 C.3     1  UNL1        0.0188
     23 H          -1.0127  -19.2119   22.5661 H       1  UNL1        0.1232
@<TRIPOS>UNITY_ATOM_ATTR
11 1
charge -1
@<TRIPOS>BOND
     1    11    12   ar
     2    12    13   ar
     3    12     1    1
     4     1     2   ar
     5     2     3   ar
     6     3     4   ar
     7     4     5   ar
     8     5     6    1
     9     5     7   ar
    10     7     8   ar
    11     8    14    1
    12    14    16    1
    13    16    17    1
    14    17    18    1
    15    18    19    1
    16    19    20    1
    17    20    21    1
    18    21    22    1
    19     8     9   ar
    20     9    10   ar
    21    10     1   ar
    22     9     3   ar
    23    22    17    1
    24    14    15    1
    25    20    23    1
@<TRIPOS>MOLECULE
*****
 23 25 0 0 0
SMALL
GASTEIGER

@<TRIPOS>ATOM
      1 C          -9.4813  -16.7359   22.0172 C.ar    1  UNL1        0.1593
      2 C          -9.9767  -16.4278   23.3991 C.ar    1  UNL1        0.0418
      3 C          -8.7871  -16.1251   24.2612 C.ar    1  UNL1        0.0394
      4 C          -8.6655  -15.7549   25.7097 C.ar    1  UNL1        0.0099
      5 C          -7.3132  -15.5056   26.3092 C.ar    1  UNL1        0.0360
      6 BR         -7.1916  -15.1354   27.7576 Br      1  UNL1       -0.0490
      7 C          -6.0826  -15.6266   25.4601 C.ar    1  UNL1        0.0241
      8 C          -6.2042  -15.9969   24.0116 C.ar    1  UNL1        0.0802
      9 C          -7.5565  -16.2461   23.4122 C.ar    1  UNL1        0.1583
     10 O          -7.9855  -16.6236   22.0253 O.2     1  UNL1       -0.4511
     11 O          -9.8751  -18.1509   19.8742 O.co2   1  UNL1       -0.5415
     12 C         -10.3322  -17.0935   20.8348 C.2     1  UNL1        0.1076
     13 O         -11.6403  -16.3938   20.6132 O.co2   1  UNL1       -0.5415
     14 N          -4.9736  -16.1179   23.1625 N.pl3   1  UNL1       -0.3302
     15 H          -4.8441  -15.5154   22.3947 H       1  UNL1        0.1469
     16 C          -3.9403  -17.1568   23.4833 C.3     1  UNL1        0.0871
     17 C          -3.0475  -17.6860   22.4003 C.3     1  UNL1        0.0223
     18 C          -2.1246  -16.7572   21.6685 C.3     1  UNL1        0.0188
     19 C          -1.2318  -17.2864   20.5855 C.3     1  UNL1        0.0686
     20 N          -1.2618  -18.7444   20.2344 N.3     1  UNL1       -0.2975
     21 C          -2.1847  -19.6733   20.9662 C.3     1  UNL1        0.0686
     22 C          -3.0775  -19.1441   22.0492 C.3     1  UNL1        0.0188
     23 H          -0.3158  -19.1001   20.3724 H       1  UNL1        0.1232
@<TRIPOS>UNITY_ATOM_ATTR
11 1
charge -1
@<TRIPOS>BOND
     1    11    12   ar
     2    12    13   ar
     3    12     1    1
     4     1     2   ar
     5     2     3   ar
     6     3     4   ar
     7     4     5   ar
     8     5     6    1
     9     5     7   ar
    10     7     8   ar
    11     8    14    1
    12    14    16    1
    13    16    17    1
    14    17    18    1
    15    18    19    1
    16    19    20    1
    17    20    21    1
    18    21    22    1
    19     8     9   ar
    20     9    10   ar
    21    10     1   ar
    22     9     3   ar
    23    22    17    1
    24    14    15    1
    25    20    23    1
@<TRIPOS>MOLECULE
*****
 23 25 0 0 0
SMALL
GASTEIGER

@<TRIPOS>ATOM
      1 C          -4.4010  -19.0148   21.6583 C.ar    1  UNL1        0.1593
      2 C          -4.9618  -19.6688   20.4303 C.ar    1  UNL1        0.0418
      3 C          -6.4467  -19.4562   20.4290 C.ar    1  UNL1        0.0394
      4 C          -7.5198  -19.8764   19.4689 C.ar    1  UNL1        0.0099
      5 C          -8.9500  -19.5111   19.7359 C.ar    1  UNL1        0.0360
      6 BR        -10.0232  -19.9313   18.7759 Br      1  UNL1       -0.0490
      7 C          -9.3070  -18.7258   20.9630 C.ar    1  UNL1        0.0241
      8 C          -8.2337  -18.3057   21.9231 C.ar    1  UNL1        0.0802
      9 C          -6.8036  -18.6709   21.6561 C.ar    1  UNL1        0.1583
     10 O          -5.5393  -18.3981   22.4158 O.2     1  UNL1       -0.4511
     11 O          -2.4364  -17.8591   22.9050 O.co2   1  UNL1       -0.5415
     12 C          -2.9557  -18.9831   22.0584 C.2     1  UNL1        0.1076
     13 O          -2.0297  -20.0754   21.6118 O.co2   1  UNL1       -0.5415
     14 N          -8.5906  -17.5203   23.1503 N.pl3   1  UNL1       -0.3302
     15 H          -9.1972  -17.9065   23.8227 H       1  UNL1        0.1469
     16 C          -8.0234  -16.1465   23.3528 C.3     1  UNL1        0.0871
     17 C          -7.5288  -15.7314   24.7068 C.3     1  UNL1        0.0223
     18 C          -6.0790  -15.4034   24.9076 C.3     1  UNL1        0.0188
     19 C          -5.5845  -14.9884   26.2615 C.3     1  UNL1        0.0686
     20 N          -6.5398  -14.9013   27.4147 N.3     1  UNL1       -0.2975
     21 C          -7.9897  -15.2294   27.2139 C.3     1  UNL1        0.0686
     22 C          -8.4842  -15.6444   25.8599 C.3     1  UNL1        0.0188
     23 H          -6.4999  -13.9418   27.7584 H       1  UNL1        0.1232
@<TRIPOS>UNITY_ATOM_ATTR
11 1
charge -1
@<TRIPOS>BOND
     1    11    12   ar
     2    12    13   ar
     3    12     1    1
     4     1     2   ar
     5     2     3   ar
     6     3     4   ar
     7     4     5   ar
     8     5     6    1
     9     5     7   ar
    10     7     8   ar
    11     8    14    1
    12    14    16    1
    13    16    17    1
    14    17    18    1
    15    18    19    1
    16    19    20    1
    17    20    21    1
    18    21    22    1
    19     8     9   ar
    20     9    10   ar
    21    10     1   ar
    22     9     3   ar
    23    22    17    1
    24    14    15    1
    25    20    23    1
@<TRIPOS>MOLECULE
*****
 23 25 0 0 0
SMALL
GASTEIGER

@<TRIPOS>ATOM
      1 C          -7.0453  -16.2721   23.7337 C.ar    1  UNL1        0.1593
      2 C          -8.4798  -16.2023   23.3007 C.ar    1  UNL1        0.0418
      3 C          -8.6916  -17.2318   22.2306 C.ar    1  UNL1        0.0394
      4 C          -9.9031  -17.6175   21.4346 C.ar    1  UNL1        0.0099
      5 C          -9.8110  -18.7094   20.4102 C.ar    1  UNL1        0.0360
      6 BR        -11.0225  -19.0951   19.6143 Br      1  UNL1       -0.0490
      7 C          -8.5075  -19.4155   20.1817 C.ar    1  UNL1        0.0241
      8 C          -7.2960  -19.0297   20.9777 C.ar    1  UNL1        0.0802
      9 C          -7.3881  -17.9379   22.0021 C.ar    1  UNL1        0.1583
     10 O          -6.3706  -17.3447   22.9311 O.2     1  UNL1       -0.4511
     11 O          -5.1469  -14.6568   24.4665 O.co2   1  UNL1       -0.5415
     12 C          -6.3990  -15.4190   24.7846 C.2     1  UNL1        0.1076
     13 O          -7.0049  -15.3280   26.1538 O.co2   1  UNL1       -0.5415
     14 N          -5.9924  -19.7358   20.7492 N.pl3   1  UNL1       -0.3302
     15 H          -5.7913  -20.5677   21.2358 H       1  UNL1        0.1469
     16 C          -4.9952  -19.1743   19.7794 C.3     1  UNL1        0.0871
     17 C          -3.6027  -18.8546   20.2363 C.3     1  UNL1        0.0223
     18 C          -2.5516  -18.4808   19.2336 C.3     1  UNL1        0.0188
     19 C          -1.1591  -18.1612   19.6905 C.3     1  UNL1        0.0686
     20 N          -0.8177  -18.2154   21.1500 N.3     1  UNL1       -0.2975
     21 C          -1.8688  -18.5893   22.1528 C.3     1  UNL1        0.0686
     22 C          -3.2613  -18.9089   21.6960 C.3     1  UNL1        0.0188
     23 H          -0.4809  -17.2879   21.4083 H       1  UNL1        0.1232
@<TRIPOS>UNITY_ATOM_ATTR
11 1
charge -1
@<TRIPOS>BOND
     1    11    12   ar
     2    12    13   ar
     3    12     1    1
     4     1     2   ar
     5     2     3   ar
     6     3     4   ar
     7     4     5   ar
     8     5     6    1
     9     5     7   ar
    10     7     8   ar
    11     8    14    1
    12    14    16    1
    13    16    17    1
    14    17    18    1
    15    18    19    1
    16    19    20    1
    17    20    21    1
    18    21    22    1
    19     8     9   ar
    20     9    10   ar
    21    10     1   ar
    22     9     3   ar
    23    22    17    1
    24    14    15    1
    25    20    23    1
@<TRIPOS>MOLECULE
*****
 23 25 0 0 0
SMALL
GASTEIGER

@<TRIPOS>ATOM
      1 C         -11.5373  -17.6926   22.0114 C.ar    1  UNL1        0.1593
      2 C         -11.8800  -18.5151   20.8047 C.ar    1  UNL1        0.0418
      3 C         -10.6047  -19.0746   20.2476 C.ar    1  UNL1        0.0394
      4 C         -10.3271  -19.9565   19.0664 C.ar    1  UNL1        0.0099
      5 C          -8.9185  -20.3618   18.7476 C.ar    1  UNL1        0.0360
      6 BR         -8.6409  -21.2438   17.5665 Br      1  UNL1       -0.0490
      7 C          -7.7875  -19.8852   19.6100 C.ar    1  UNL1        0.0241
      8 C          -8.0651  -19.0032   20.7912 C.ar    1  UNL1        0.0802
      9 C          -9.4737  -18.5980   21.1099 C.ar    1  UNL1        0.1583
     10 O         -10.0501  -17.7439   22.2000 O.2     1  UNL1       -0.4511
     11 O         -13.4293  -17.7045   23.7919 O.co2   1  UNL1       -0.5415
     12 C         -12.5108  -16.9495   22.8774 C.2     1  UNL1        0.1076
     13 O         -12.5658  -15.4513   22.8289 O.co2   1  UNL1       -0.5415
     14 N          -6.9341  -18.5265   21.6535 N.pl3   1  UNL1       -0.3302
     15 H          -6.8770  -17.5779   21.9105 H       1  UNL1        0.1469
     16 C          -5.8902  -19.4953   22.1244 C.3     1  UNL1        0.0871
     17 C          -4.4368  -19.1369   22.0287 C.3     1  UNL1        0.0223
     18 C          -3.8538  -18.1142   22.9583 C.3     1  UNL1        0.0188
     19 C          -2.4004  -17.7557   22.8626 C.3     1  UNL1        0.0686
     20 N          -1.5300  -18.4200   21.8374 N.3     1  UNL1       -0.2975
     21 C          -2.1130  -19.4428   20.9078 C.3     1  UNL1        0.0686
     22 C          -3.5664  -19.8012   21.0034 C.3     1  UNL1        0.0188
     23 H          -0.7751  -18.8805   22.3458 H       1  UNL1        0.1232
@<TRIPOS>UNITY_ATOM_ATTR
11 1
charge -1
@<TRIPOS>BOND
     1    11    12   ar
     2    12    13   ar
     3    12     1    1
     4     1     2   ar
     5     2     3   ar
     6     3     4   ar
     7     4     5   ar
     8     5     6    1
     9     5     7   ar
    10     7     8   ar
    11     8    14    1
    12    14    16    1
    13    16    17    1
    14    17    18    1
    15    18    19    1
    16    19    20    1
    17    20    21    1
    18    21    22    1
    19     8     9   ar
    20     9    10   ar
    21    10     1   ar
    22     9     3   ar
    23    22    17    1
    24    14    15    1
    25    20    23    1
@<TRIPOS>MOLECULE
*****
 23 25 0 0 0
SMALL
GASTEIGER

@<TRIPOS>ATOM
      1 C          -3.9932  -19.0435   21.3072 C.ar    1  UNL1        0.1593
      2 C          -4.7697  -19.7221   20.2179 C.ar    1  UNL1        0.0418
      3 C          -6.2227  -19.4095   20.4206 C.ar    1  UNL1        0.0394
      4 C          -7.4508  -19.8060   19.6561 C.ar    1  UNL1        0.0099
      5 C          -8.8005  -19.3307   20.1061 C.ar    1  UNL1        0.0360
      6 BR        -10.0286  -19.7272   19.3416 Br      1  UNL1       -0.0490
      7 C          -8.9220  -18.4589   21.3207 C.ar    1  UNL1        0.0241
      8 C          -7.6938  -18.0624   22.0852 C.ar    1  UNL1        0.0802
      9 C          -6.3442  -18.5377   21.6351 C.ar    1  UNL1        0.1583
     10 O          -4.9663  -18.3115   22.1831 O.2     1  UNL1       -0.4511
     11 O          -1.7317  -17.8159   21.6657 O.co2   1  UNL1       -0.5415
     12 C          -2.5049  -19.0890   21.4888 C.2     1  UNL1        0.1076
     13 O          -1.7898  -20.4075   21.4934 O.co2   1  UNL1       -0.5415
     14 N          -7.8153  -17.1906   23.2998 N.pl3   1  UNL1       -0.3302
     15 H          -7.1107  -17.2032   23.9873 H       1  UNL1        0.1469
     16 C          -9.0105  -16.2995   23.4669 C.3     1  UNL1        0.0871
     17 C         -10.3870  -16.8931   23.5189 C.3     1  UNL1        0.0223
     18 C         -10.6572  -18.0857   24.3875 C.3     1  UNL1        0.0188
     19 C         -12.0338  -18.6793   24.4395 C.3     1  UNL1        0.0686
     20 N         -13.1402  -18.0802   23.6229 N.3     1  UNL1       -0.2975
     21 C         -12.8701  -16.8875   22.7542 C.3     1  UNL1        0.0686
     22 C         -11.4935  -16.2940   22.7022 C.3     1  UNL1        0.0188
     23 H         -13.8745  -17.8082   24.2765 H       1  UNL1        0.1232
@<TRIPOS>UNITY_ATOM_ATTR
11 1
charge -1
@<TRIPOS>BOND
     1    11    12   ar
     2    12    13   ar
     3    12     1    1
     4     1     2   ar
     5     2     3   ar
     6     3     4   ar
     7     4     5   ar
     8     5     6    1
     9     5     7   ar
    10     7     8   ar
    11     8    14    1
    12    14    16    1
    13    16    17    1
    14    17    18    1
    15    18    19    1
    16    19    20    1
    17    20    21    1
    18    21    22    1
    19     8     9   ar
    20     9    10   ar
    21    10     1   ar
    22     9     3   ar
    23    22    17    1
    24    14    15    1
    25    20    23    1
@<TRIPOS>MOLECULE
*****
 23 25 0 0 0
SMALL
GASTEIGER

@<TRIPOS>ATOM
      1 C         -15.3965   -7.2180   19.3132 C.ar    1  UNL1        0.1593
      2 C         -16.5328   -6.2392   19.3411 C.ar    1  UNL1        0.0418
      3 C         -15.9543   -4.8605   19.4618 C.ar    1  UNL1        0.0394
      4 C         -16.5947   -3.5062   19.5352 C.ar    1  UNL1        0.0099
      5 C         -15.7413   -2.2784   19.6554 C.ar    1  UNL1        0.0360
      6 BR        -16.3818   -0.9240   19.7288 Br      1  UNL1       -0.0490
      7 C         -14.2474   -2.4051   19.7021 C.ar    1  UNL1        0.0241
      8 C         -13.6069   -3.7596   19.6287 C.ar    1  UNL1        0.0802
      9 C         -14.4603   -4.9872   19.5085 C.ar    1  UNL1        0.1583
     10 O         -14.1156   -6.4442   19.4167 O.2     1  UNL1       -0.4511
     11 O         -14.8674   -9.4316   18.0603 O.co2   1  UNL1       -0.5415
     12 C         -15.5194   -8.7087   19.2014 C.2     1  UNL1        0.1076
     13 O         -16.2944   -9.4766   20.2308 O.co2   1  UNL1       -0.5415
     14 N         -12.1130   -3.8863   19.6754 N.pl3   1  UNL1       -0.3302
     15 H         -11.6318   -3.7291   20.5198 H       1  UNL1        0.1469
     16 C         -11.3522   -4.2525   18.4356 C.3     1  UNL1        0.0871
     17 C         -10.8999   -5.6669   18.2235 C.3     1  UNL1        0.0223
     18 C         -11.5483   -6.5112   17.1668 C.3     1  UNL1        0.0188
     19 C         -11.0960   -7.9256   16.9548 C.3     1  UNL1        0.0686
     20 N          -9.9953   -8.4956   17.7995 N.3     1  UNL1       -0.2975
     21 C          -9.3469   -7.6513   18.8562 C.3     1  UNL1        0.0686
     22 C          -9.7992   -6.2369   19.0683 C.3     1  UNL1        0.0188
     23 H          -9.2555   -8.7879   17.1610 H       1  UNL1        0.1232
@<TRIPOS>UNITY_ATOM_ATTR
11 1
charge -1
@<TRIPOS>BOND
     1    11    12   ar
     2    12    13   ar
     3    12     1    1
     4     1     2   ar
     5     2     3   ar
     6     3     4   ar
     7     4     5   ar
     8     5     6    1
     9     5     7   ar
    10     7     8   ar
    11     8    14    1
    12    14    16    1
    13    16    17    1
    14    17    18    1
    15    18    19    1
    16    19    20    1
    17    20    21    1
    18    21    22    1
    19     8     9   ar
    20     9    10   ar
    21    10     1   ar
    22     9     3   ar
    23    22    17    1
    24    14    15    1
    25    20    23    1
@<TRIPOS>MOLECULE
*****
 23 25 0 0 0
SMALL
GASTEIGER

@<TRIPOS>ATOM
      1 C         -10.5565  -17.0898   21.3193 C.ar    1  UNL1        0.1593
      2 C         -10.3012  -18.3588   20.5615 C.ar    1  UNL1        0.0418
      3 C          -8.8764  -18.7627   20.8003 C.ar    1  UNL1        0.0394
      4 C          -8.0677  -19.9270   20.3103 C.ar    1  UNL1        0.0099
      5 C          -6.6335  -20.0719   20.7257 C.ar    1  UNL1        0.0360
      6 BR         -5.8248  -21.2362   20.2357 Br      1  UNL1       -0.0490
      7 C          -6.0083  -19.0524   21.6310 C.ar    1  UNL1        0.0241
      8 C          -6.8172  -17.8880   22.1210 C.ar    1  UNL1        0.0802
      9 C          -8.2512  -17.7432   21.7057 C.ar    1  UNL1        0.1583
     10 O          -9.2896  -16.7093   22.0264 O.2     1  UNL1       -0.4511
     11 O         -12.6701  -16.1769   20.1154 O.co2   1  UNL1       -0.5415
     12 C         -11.8514  -16.3339   21.3624 C.2     1  UNL1        0.1076
     13 O         -12.3277  -15.7350   22.6525 O.co2   1  UNL1       -0.5415
     14 N          -6.1919  -16.8685   23.0264 N.pl3   1  UNL1       -0.3302
     15 H          -6.6425  -16.0074   23.1834 H       1  UNL1        0.1469
     16 C          -4.8801  -17.1610   23.6925 C.3     1  UNL1        0.0871
     17 C          -3.6371  -17.3128   22.8667 C.3     1  UNL1        0.0223
     18 C          -3.0472  -18.6735   22.6424 C.3     1  UNL1        0.0188
     19 C          -1.8041  -18.8252   21.8167 C.3     1  UNL1        0.0686
     20 N          -1.1510  -17.6163   21.2152 N.3     1  UNL1       -0.2975
     21 C          -1.7410  -16.2554   21.4395 C.3     1  UNL1        0.0686
     22 C          -2.9840  -16.1037   22.2652 C.3     1  UNL1        0.0188
     23 H          -1.1287  -17.7649   20.2063 H       1  UNL1        0.1232
@<TRIPOS>UNITY_ATOM_ATTR
11 1
charge -1
@<TRIPOS>BOND
     1    11    12   ar
     2    12    13   ar
     3    12     1    1
     4     1     2   ar
     5     2     3   ar
     6     3     4   ar
     7     4     5   ar
     8     5     6    1
     9     5     7   ar
    10     7     8   ar
    11     8    14    1
    12    14    16    1
    13    16    17    1
    14    17    18    1
    15    18    19    1
    16    19    20    1
    17    20    21    1
    18    21    22    1
    19     8     9   ar
    20     9    10   ar
    21    10     1   ar
    22     9     3   ar
    23    22    17    1
    24    14    15    1
    25    20    23    1
@<TRIPOS>MOLECULE
*****
 23 25 0 0 0
SMALL
GASTEIGER

@<TRIPOS>ATOM
      1 C         -11.0953  -16.3244   20.5713 C.ar    1  UNL1        0.1593
      2 C         -11.5388  -17.7280   20.8595 C.ar    1  UNL1        0.0418
      3 C         -10.8710  -18.1744   22.1263 C.ar    1  UNL1        0.0394
      4 C         -10.9320  -19.4620   22.8932 C.ar    1  UNL1        0.0099
      5 C         -10.1366  -19.6219   24.1550 C.ar    1  UNL1        0.0360
      6 BR        -10.1976  -20.9095   24.9219 Br      1  UNL1       -0.0490
      7 C          -9.2803  -18.4941   24.6498 C.ar    1  UNL1        0.0241
      8 C          -9.2194  -17.2064   23.8828 C.ar    1  UNL1        0.0802
      9 C         -10.0147  -17.0465   22.6211 C.ar    1  UNL1        0.1583
     10 O         -10.1534  -15.9032   21.6600 O.2     1  UNL1       -0.4511
     11 O         -12.9646  -15.4329   19.0026 O.co2   1  UNL1       -0.5415
     12 C         -11.5193  -15.4887   19.4001 C.2     1  UNL1        0.1076
     13 O         -10.4980  -14.7088   18.6263 O.co2   1  UNL1       -0.5415
     14 N          -8.3631  -16.0785   24.3775 N.pl3   1  UNL1       -0.3302
     15 H          -8.6291  -15.5739   25.1800 H       1  UNL1        0.1469
     16 C          -7.1016  -15.7195   23.6497 C.3     1  UNL1        0.0871
     17 C          -6.0996  -16.7846   23.3153 C.3     1  UNL1        0.0223
     18 C          -6.5003  -17.9489   22.4588 C.3     1  UNL1        0.0188
     19 C          -5.4984  -19.0140   22.1244 C.3     1  UNL1        0.0686
     20 N          -4.0957  -18.9146   22.6466 N.3     1  UNL1       -0.2975
     21 C          -3.6950  -17.7502   23.5031 C.3     1  UNL1        0.0686
     22 C          -4.6969  -16.6852   23.8375 C.3     1  UNL1        0.0188
     23 H          -3.4789  -18.9087   21.8343 H       1  UNL1        0.1232
@<TRIPOS>UNITY_ATOM_ATTR
11 1
charge -1
@<TRIPOS>BOND
     1    11    12   ar
     2    12    13   ar
     3    12     1    1
     4     1     2   ar
     5     2     3   ar
     6     3     4   ar
     7     4     5   ar
     8     5     6    1
     9     5     7   ar
    10     7     8   ar
    11     8    14    1
    12    14    16    1
    13    16    17    1
    14    17    18    1
    15    18    19    1
    16    19    20    1
    17    20    21    1
    18    21    22    1
    19     8     9   ar
    20     9    10   ar
    21    10     1   ar
    22     9     3   ar
    23    22    17    1
    24    14    15    1
    25    20    23    1
