@<TRIPOS>MOLECULE
*****
 23 25 0 0 0
SMALL
GASTEIGER

@<TRIPOS>ATOM
      1 S          -7.0218  -19.6344   19.7846 S.3     1  UNL1       -0.0709
      2 C          -8.2854  -19.2991   20.5199 C.2     1  UNL1        0.1901
      3 N          -9.4897  -18.6191   19.9390 N.2     1  UNL1       -0.2200
      4 C         -10.5152  -18.4846   21.0254 C.2     1  UNL1        0.0975
      5 C         -11.8948  -17.8958   21.0360 C.2     1  UNL1        0.0232
      6 C         -12.7039  -17.9038   22.2990 C.2     1  UNL1        0.0343
      7 C         -12.1335  -18.5007   23.5514 C.2     1  UNL1        0.1223
      8 C         -10.7540  -19.0895   23.5407 C.3     1  UNL1        0.1112
      9 C          -9.9448  -19.0815   22.2777 C.2     1  UNL1        0.0863
     10 N          -8.5668  -19.5848   21.9653 N.2     1  UNL1       -0.2236
     11 O         -12.9427  -18.5087   24.8144 O.2     1  UNL1       -0.4753
     12 C         -14.4251  -18.2870   24.7568 C.3     1  UNL1        0.2520
     13 C          -5.9216  -20.3765   20.4837 C.3     1  UNL1        0.0915
     14 C          -3.8886  -18.0406   22.9658 C.ar    1  UNL1        0.1415
     15 C          -5.0232  -18.7963   22.3401 C.ar    1  UNL1        0.0337
     16 C          -4.7869  -19.6207   21.1094 C.ar    1  UNL1       -0.0049
     17 C          -3.4161  -19.6894   20.5045 C.ar    1  UNL1        0.0337
     18 C          -2.2815  -18.9337   21.1302 C.ar    1  UNL1        0.1415
     19 C          -2.5177  -18.1093   22.3608 C.ar    1  UNL1        0.0737
     20 C          -5.1113  -16.0866   24.1646 C.3     1  UNL1        0.2525
     21 O          -4.1248  -17.2162   24.1965 O.3     1  UNL1       -0.4713
     22 O          -0.9106  -19.0023   20.5252 O.3     1  UNL1       -0.4713
     23 C          -0.2554  -17.7557   20.0089 C.3     1  UNL1        0.2525
@<TRIPOS>BOND
     1    20    21    1
     2    21    14    1
     3    14    15   ar
     4    15    16   ar
     5    16    13    1
     6    13     1    1
     7     1     2    1
     8     2     3    2
     9     3     4    1
    10     4     5    2
    11     5     6    1
    12     6     7    2
    13     7    11    1
    14    11    12    1
    15     7     8    1
    16     8     9    1
    17     9    10    2
    18    16    17   ar
    19    17    18   ar
    20    18    22    1
    21    22    23    1
    22    18    19   ar
    23    19    14   ar
    24    10     2    1
    25     9     4    1
@<TRIPOS>MOLECULE
*****
 23 25 0 0 0
SMALL
GASTEIGER

@<TRIPOS>ATOM
      1 S          -6.9902  -19.6917   19.7712 S.3     1  UNL1       -0.0709
      2 C          -8.2522  -19.3342   20.4989 C.2     1  UNL1        0.1901
      3 N          -9.4277  -18.6047   19.9194 N.2     1  UNL1       -0.2200
      4 C         -10.4623  -18.4631   20.9962 C.2     1  UNL1        0.0975
      5 C         -11.8233  -17.8325   21.0039 C.2     1  UNL1        0.0232
      6 C         -12.6481  -17.8439   22.2567 C.2     1  UNL1        0.0343
      7 C         -12.1119  -18.4859   23.5018 C.2     1  UNL1        0.1223
      8 C         -10.7509  -19.1165   23.4942 C.3     1  UNL1        0.1112
      9 C          -9.9261  -19.1051   22.2414 C.2     1  UNL1        0.0863
     10 N          -8.5602  -19.6434   21.9340 N.2     1  UNL1       -0.2236
     11 O         -12.9368  -18.4973   24.7546 O.2     1  UNL1       -0.4753
     12 C         -14.4187  -18.2780   24.6789 C.3     1  UNL1        0.2520
     13 C          -5.8898  -20.4154   20.4890 C.3     1  UNL1        0.0915
     14 C          -2.2496  -18.9561   21.0965 C.ar    1  UNL1        0.1415
     15 C          -3.3844  -19.7277   20.4909 C.ar    1  UNL1        0.0337
     16 C          -4.7550  -19.6438   21.0946 C.ar    1  UNL1       -0.0049
     17 C          -4.9908  -18.7884   22.3040 C.ar    1  UNL1        0.0337
     18 C          -3.8559  -18.0167   22.9096 C.ar    1  UNL1        0.1415
     19 C          -2.4854  -18.1006   22.3059 C.ar    1  UNL1        0.0737
     20 C          -0.2094  -17.8005   19.9773 C.3     1  UNL1        0.2525
     21 O          -0.8790  -19.0399   20.4928 O.3     1  UNL1       -0.4713
     22 O          -4.0917  -17.1613   24.1190 O.3     1  UNL1       -0.4713
     23 C          -5.0273  -15.9915   24.0394 C.3     1  UNL1        0.2525
@<TRIPOS>BOND
     1    20    21    1
     2    21    14    1
     3    14    15   ar
     4    15    16   ar
     5    16    13    1
     6    13     1    1
     7     1     2    1
     8     2     3    2
     9     3     4    1
    10     4     5    2
    11     5     6    1
    12     6     7    2
    13     7    11    1
    14    11    12    1
    15     7     8    1
    16     8     9    1
    17     9    10    2
    18    16    17   ar
    19    17    18   ar
    20    18    22    1
    21    22    23    1
    22    18    19   ar
    23    19    14   ar
    24    10     2    1
    25     9     4    1
@<TRIPOS>MOLECULE
*****
 23 25 0 0 0
SMALL
GASTEIGER

@<TRIPOS>ATOM
      1 S          -8.3797  -19.4320   20.9110 S.3     1  UNL1       -0.0709
      2 C          -6.8840  -19.3305   20.8601 C.2     1  UNL1        0.1901
      3 N          -5.9348  -19.7430   21.9458 N.2     1  UNL1       -0.2200
      4 C          -4.5390  -19.4661   21.4713 C.2     1  UNL1        0.0975
      5 C          -3.2005  -19.6701   22.1168 C.2     1  UNL1        0.0232
      6 C          -1.9485  -19.2903   21.3832 C.2     1  UNL1        0.0343
      7 C          -2.0350  -18.7067   20.0041 C.2     1  UNL1        0.1223
      8 C          -3.3736  -18.5027   19.3586 C.3     1  UNL1        0.1112
      9 C          -4.6256  -18.8825   20.0922 C.2     1  UNL1        0.0863
     10 N          -6.0748  -18.7986   19.7145 N.2     1  UNL1       -0.2236
     11 O          -0.7829  -18.3269   19.2705 O.2     1  UNL1       -0.4753
     12 C           0.3117  -17.5920   19.9857 C.3     1  UNL1        0.2520
     13 C          -9.0864  -19.4377   22.2340 C.3     1  UNL1        0.0915
     14 C         -12.5583  -18.2756   23.7656 C.ar    1  UNL1        0.1415
     15 C         -11.2284  -18.9546   23.6227 C.ar    1  UNL1        0.0337
     16 C         -10.4163  -18.7587   22.3769 C.ar    1  UNL1       -0.0049
     17 C         -10.9340  -17.8838   21.2740 C.ar    1  UNL1        0.0337
     18 C         -12.2639  -17.2048   21.4168 C.ar    1  UNL1        0.1415
     19 C         -13.0760  -17.4006   22.6626 C.ar    1  UNL1        0.0737
     20 C         -14.8686  -18.4732   24.9375 C.3     1  UNL1        0.2525
     21 O         -13.3704  -18.4715   25.0114 O.3     1  UNL1       -0.4713
     22 O         -12.7816  -16.3299   20.3139 O.3     1  UNL1       -0.4713
     23 C         -11.8254  -15.6989   19.3456 C.3     1  UNL1        0.2525
@<TRIPOS>BOND
     1    20    21    1
     2    21    14    1
     3    14    15   ar
     4    15    16   ar
     5    16    13    1
     6    13     1    1
     7     1     2    1
     8     2     3    2
     9     3     4    1
    10     4     5    2
    11     5     6    1
    12     6     7    2
    13     7    11    1
    14    11    12    1
    15     7     8    1
    16     8     9    1
    17     9    10    2
    18    16    17   ar
    19    17    18   ar
    20    18    22    1
    21    22    23    1
    22    18    19   ar
    23    19    14   ar
    24    10     2    1
    25     9     4    1
@<TRIPOS>MOLECULE
*****
 23 25 0 0 0
SMALL
GASTEIGER

@<TRIPOS>ATOM
      1 S          -8.2617  -19.2940   20.9334 S.3     1  UNL1       -0.0709
      2 C          -6.7646  -19.2097   20.9725 C.2     1  UNL1        0.1901
      3 N          -5.9060  -19.3358   22.1960 N.2     1  UNL1       -0.2200
      4 C          -4.4740  -19.1886   21.7747 C.2     1  UNL1        0.0975
      5 C          -3.1907  -19.2241   22.5505 C.2     1  UNL1        0.0232
      6 C          -1.8810  -19.0426   21.8424 C.2     1  UNL1        0.0343
      7 C          -1.8544  -18.8256   20.3584 C.2     1  UNL1        0.1223
      8 C          -3.1377  -18.7900   19.5826 C.3     1  UNL1        0.1112
      9 C          -4.4474  -18.9715   20.2907 C.2     1  UNL1        0.0863
     10 N          -5.8631  -18.9846   19.7950 N.2     1  UNL1       -0.2236
     11 O          -0.5445  -18.6440   19.6503 O.2     1  UNL1       -0.4753
     12 C           0.3614  -17.5099   20.0282 C.3     1  UNL1        0.2520
     13 C          -9.0380  -19.4430   22.2082 C.3     1  UNL1        0.0915
     14 C         -12.2149  -17.1988   21.4198 C.ar    1  UNL1        0.1415
     15 C         -10.8872  -17.8796   21.2664 C.ar    1  UNL1        0.0337
     16 C         -10.3658  -18.7622   22.3616 C.ar    1  UNL1       -0.0049
     17 C         -11.1722  -18.9638   23.6102 C.ar    1  UNL1        0.0337
     18 C         -12.5000  -18.2830   23.7636 C.ar    1  UNL1        0.1415
     19 C         -13.0213  -17.4005   22.6685 C.ar    1  UNL1        0.0737
     20 C         -11.7877  -15.7152   19.3303 C.3     1  UNL1        0.2525
     21 O         -12.7363  -16.3164   20.3247 O.3     1  UNL1       -0.4713
     22 O         -13.3064  -18.4847   25.0122 O.3     1  UNL1       -0.4713
     23 C         -14.8049  -18.4749   24.9470 C.3     1  UNL1        0.2525
@<TRIPOS>BOND
     1    20    21    1
     2    21    14    1
     3    14    15   ar
     4    15    16   ar
     5    16    13    1
     6    13     1    1
     7     1     2    1
     8     2     3    2
     9     3     4    1
    10     4     5    2
    11     5     6    1
    12     6     7    2
    13     7    11    1
    14    11    12    1
    15     7     8    1
    16     8     9    1
    17     9    10    2
    18    16    17   ar
    19    17    18   ar
    20    18    22    1
    21    22    23    1
    22    18    19   ar
    23    19    14   ar
    24    10     2    1
    25     9     4    1
@<TRIPOS>MOLECULE
*****
 23 25 0 0 0
SMALL
GASTEIGER

@<TRIPOS>ATOM
      1 S          -5.8749  -15.6251   23.7353 S.3     1  UNL1       -0.0709
      2 C          -7.2826  -15.9376   23.3223 C.2     1  UNL1        0.1901
      3 N          -7.9228  -15.5628   22.0185 N.2     1  UNL1       -0.2200
      4 C          -9.3332  -16.0732   22.0310 C.2     1  UNL1        0.0975
      5 C         -10.4366  -15.9987   21.0176 C.2     1  UNL1        0.0232
      6 C         -11.7715  -16.6144   21.3156 C.2     1  UNL1        0.0343
      7 C         -12.0030  -17.3047   22.6271 C.2     1  UNL1        0.1223
      8 C         -10.8997  -17.3793   23.6405 C.3     1  UNL1        0.1112
      9 C          -9.5648  -16.7635   23.3424 C.2     1  UNL1        0.0863
     10 N          -8.2974  -16.6797   24.1404 N.2     1  UNL1       -0.2236
     11 O         -13.3380  -17.9204   22.9251 O.2     1  UNL1       -0.4753
     12 C         -13.7772  -18.1071   24.3471 C.3     1  UNL1        0.2520
     13 C          -4.9338  -16.7371   24.0928 C.3     1  UNL1        0.0915
     14 C          -4.9119  -19.5279   21.2713 C.ar    1  UNL1        0.1415
     15 C          -5.4040  -18.5909   22.3342 C.ar    1  UNL1        0.0337
     16 C          -4.4418  -17.6742   23.0299 C.ar    1  UNL1       -0.0049
     17 C          -2.9876  -17.6947   22.6628 C.ar    1  UNL1        0.0337
     18 C          -2.4955  -18.6317   21.5999 C.ar    1  UNL1        0.1415
     19 C          -3.4576  -19.5483   20.9041 C.ar    1  UNL1        0.0737
     20 C          -7.1672  -19.9067   20.0383 C.3     1  UNL1        0.2525
     21 O          -5.8740  -20.4445   20.5756 O.3     1  UNL1       -0.4713
     22 O          -1.0413  -18.6522   21.2327 O.3     1  UNL1       -0.4713
     23 C          -0.5971  -18.1287   19.8990 C.3     1  UNL1        0.2525
@<TRIPOS>BOND
     1    20    21    1
     2    21    14    1
     3    14    15   ar
     4    15    16   ar
     5    16    13    1
     6    13     1    1
     7     1     2    1
     8     2     3    2
     9     3     4    1
    10     4     5    2
    11     5     6    1
    12     6     7    2
    13     7    11    1
    14    11    12    1
    15     7     8    1
    16     8     9    1
    17     9    10    2
    18    16    17   ar
    19    17    18   ar
    20    18    22    1
    21    22    23    1
    22    18    19   ar
    23    19    14   ar
    24    10     2    1
    25     9     4    1
@<TRIPOS>MOLECULE
*****
 23 25 0 0 0
SMALL
GASTEIGER

@<TRIPOS>ATOM
      1 S          -5.8178  -15.6718   23.8190 S.3     1  UNL1       -0.0709
      2 C          -7.2184  -15.9729   23.3744 C.2     1  UNL1        0.1901
      3 N          -7.8315  -15.5779   22.0636 N.2     1  UNL1       -0.2200
      4 C          -9.2438  -16.0829   22.0415 C.2     1  UNL1        0.0975
      5 C         -10.3268  -15.9901   21.0079 C.2     1  UNL1        0.0232
      6 C         -11.6696  -16.6045   21.2714 C.2     1  UNL1        0.0343
      7 C         -11.9293  -17.3116   22.5685 C.2     1  UNL1        0.1223
      8 C         -10.8463  -17.4044   23.6022 C.3     1  UNL1        0.1112
      9 C          -9.5035  -16.7900   23.3387 C.2     1  UNL1        0.0863
     10 N          -8.2518  -16.7220   24.1624 N.2     1  UNL1       -0.2236
     11 O         -13.2722  -17.9260   22.8320 O.2     1  UNL1       -0.4753
     12 C         -13.7781  -18.0480   24.2388 C.3     1  UNL1        0.2520
     13 C          -4.8735  -16.7936   24.1344 C.3     1  UNL1        0.0915
     14 C          -2.3785  -18.4856   21.5532 C.ar    1  UNL1        0.1415
     15 C          -2.9005  -17.6123   22.6554 C.ar    1  UNL1        0.0337
     16 C          -4.3515  -17.6669   23.0322 C.ar    1  UNL1       -0.0049
     17 C          -5.2803  -18.5948   22.3068 C.ar    1  UNL1        0.0337
     18 C          -4.7583  -19.4681   21.2046 C.ar    1  UNL1        0.1415
     19 C          -3.3074  -19.4135   20.8278 C.ar    1  UNL1        0.0737
     20 C          -0.5295  -18.0677   19.7765 C.3     1  UNL1        0.2525
     21 O          -0.9277  -18.4310   21.1764 O.3     1  UNL1       -0.4713
     22 O          -5.6871  -20.3959   20.4792 O.3     1  UNL1       -0.4713
     23 C          -7.0984  -19.9741   20.1958 C.3     1  UNL1        0.2525
@<TRIPOS>BOND
     1    20    21    1
     2    21    14    1
     3    14    15   ar
     4    15    16   ar
     5    16    13    1
     6    13     1    1
     7     1     2    1
     8     2     3    2
     9     3     4    1
    10     4     5    2
    11     5     6    1
    12     6     7    2
    13     7    11    1
    14    11    12    1
    15     7     8    1
    16     8     9    1
    17     9    10    2
    18    16    17   ar
    19    17    18   ar
    20    18    22    1
    21    22    23    1
    22    18    19   ar
    23    19    14   ar
    24    10     2    1
    25     9     4    1
@<TRIPOS>MOLECULE
*****
 23 25 0 0 0
SMALL
GASTEIGER

@<TRIPOS>ATOM
      1 S          -6.0047  -15.5399   24.4768 S.3     1  UNL1       -0.0709
      2 C          -5.0848  -16.3925   23.6542 C.2     1  UNL1        0.1901
      3 N          -5.2420  -17.8611   23.3927 N.2     1  UNL1       -0.2200
      4 C          -4.1005  -18.3024   22.5255 C.2     1  UNL1        0.0975
      5 C          -3.7352  -19.6387   21.9503 C.2     1  UNL1        0.0232
      6 C          -2.5072  -19.7791   21.1006 C.2     1  UNL1        0.0343
      7 C          -1.6444  -18.5832   20.8260 C.2     1  UNL1        0.1223
      8 C          -2.0097  -17.2469   21.4011 C.3     1  UNL1        0.1112
      9 C          -3.2377  -17.1065   22.2509 C.2     1  UNL1        0.0863
     10 N          -3.8461  -15.9261   22.9484 N.2     1  UNL1       -0.2236
     11 O          -0.4163  -18.7237   19.9762 O.2     1  UNL1       -0.4753
     12 C           0.6006  -17.6216   19.9397 C.3     1  UNL1        0.2520
     13 C          -7.2871  -15.0338   23.8858 C.3     1  UNL1        0.0915
     14 C          -9.9426  -17.9820   23.9651 C.ar    1  UNL1        0.1415
     15 C          -8.8873  -17.0128   24.4086 C.ar    1  UNL1        0.0337
     16 C          -8.3425  -16.0031   23.4423 C.ar    1  UNL1       -0.0049
     17 C          -8.8531  -15.9626   22.0325 C.ar    1  UNL1        0.0337
     18 C          -9.9084  -16.9319   21.5889 C.ar    1  UNL1        0.1415
     19 C         -10.4532  -17.9416   22.5552 C.ar    1  UNL1        0.0737
     20 C         -10.0866  -20.4326   24.8160 C.3     1  UNL1        0.2525
     21 O         -10.4874  -18.9917   24.9313 O.3     1  UNL1       -0.4713
     22 O         -10.4190  -16.8914   20.1791 O.3     1  UNL1       -0.4713
     23 C         -11.5202  -15.9433   19.8071 C.3     1  UNL1        0.2525
@<TRIPOS>BOND
     1    20    21    1
     2    21    14    1
     3    14    15   ar
     4    15    16   ar
     5    16    13    1
     6    13     1    1
     7     1     2    1
     8     2     3    2
     9     3     4    1
    10     4     5    2
    11     5     6    1
    12     6     7    2
    13     7    11    1
    14    11    12    1
    15     7     8    1
    16     8     9    1
    17     9    10    2
    18    16    17   ar
    19    17    18   ar
    20    18    22    1
    21    22    23    1
    22    18    19   ar
    23    19    14   ar
    24    10     2    1
    25     9     4    1
@<TRIPOS>MOLECULE
*****
 23 25 0 0 0
SMALL
GASTEIGER

@<TRIPOS>ATOM
      1 S          -6.3020  -15.4835   24.4046 S.3     1  UNL1       -0.0709
      2 C          -5.3693  -16.3494   23.6107 C.2     1  UNL1        0.1901
      3 N          -5.6590  -17.7357   23.1164 N.2     1  UNL1       -0.2200
      4 C          -4.4519  -18.2241   22.3718 C.2     1  UNL1        0.0975
      5 C          -4.1621  -19.5162   21.6672 C.2     1  UNL1        0.0232
      6 C          -2.8366  -19.7238   20.9967 C.2     1  UNL1        0.0343
      7 C          -1.8008  -18.6394   21.0308 C.2     1  UNL1        0.1223
      8 C          -2.0906  -17.3473   21.7354 C.3     1  UNL1        0.1112
      9 C          -3.4161  -17.1397   22.4059 C.2     1  UNL1        0.0863
     10 N          -3.9831  -15.9811   23.1716 N.2     1  UNL1       -0.2236
     11 O          -0.4751  -18.8471   20.3602 O.2     1  UNL1       -0.4753
     12 C           0.3366  -17.6647   19.9209 C.3     1  UNL1        0.2520
     13 C          -7.6116  -15.0530   23.8136 C.3     1  UNL1        0.0915
     14 C         -10.1553  -17.0975   21.5552 C.ar    1  UNL1        0.1415
     15 C          -9.1516  -16.0685   21.9840 C.ar    1  UNL1        0.0337
     16 C          -8.6153  -16.0820   23.3849 C.ar    1  UNL1       -0.0049
     17 C          -9.0828  -17.1244   24.3569 C.ar    1  UNL1        0.0337
     18 C         -10.0865  -18.1534   23.9281 C.ar    1  UNL1        0.1415
     19 C         -10.6227  -18.1399   22.5273 C.ar    1  UNL1        0.0737
     20 C         -11.3279  -15.8410   19.6069 C.3     1  UNL1        0.2525
     21 O         -10.6915  -17.0840   20.1544 O.3     1  UNL1       -0.4713
     22 O         -10.5539  -19.1958   24.9001 O.3     1  UNL1       -0.4713
     23 C         -10.0547  -20.6056   24.7856 C.3     1  UNL1        0.2525
@<TRIPOS>BOND
     1    20    21    1
     2    21    14    1
     3    14    15   ar
     4    15    16   ar
     5    16    13    1
     6    13     1    1
     7     1     2    1
     8     2     3    2
     9     3     4    1
    10     4     5    2
    11     5     6    1
    12     6     7    2
    13     7    11    1
    14    11    12    1
    15     7     8    1
    16     8     9    1
    17     9    10    2
    18    16    17   ar
    19    17    18   ar
    20    18    22    1
    21    22    23    1
    22    18    19   ar
    23    19    14   ar
    24    10     2    1
    25     9     4    1
@<TRIPOS>MOLECULE
*****
 23 25 0 0 0
SMALL
GASTEIGER

@<TRIPOS>ATOM
      1 S          -5.8164  -20.8519   20.7840 S.3     1  UNL1       -0.0709
      2 C          -7.1155  -20.1297   20.9862 C.2     1  UNL1        0.1901
      3 N          -7.8340  -19.9562   22.2914 N.2     1  UNL1       -0.2200
      4 C          -9.0867  -19.1735   22.0306 C.2     1  UNL1        0.0975
      5 C         -10.1838  -18.7033   22.9389 C.2     1  UNL1        0.0232
      6 C         -11.3367  -17.9227   22.3808 C.2     1  UNL1        0.0343
      7 C         -11.3924  -17.6124   20.9143 C.2     1  UNL1        0.1223
      8 C         -10.2953  -18.0827   20.0059 C.3     1  UNL1        0.1112
      9 C          -9.1425  -18.8632   20.5641 C.2     1  UNL1        0.0863
     10 N          -7.9242  -19.4542   19.9186 N.2     1  UNL1       -0.2236
     11 O         -12.5454  -16.8318   20.3561 O.2     1  UNL1       -0.4753
     12 C         -12.2950  -15.7087   19.3939 C.3     1  UNL1        0.2520
     13 C          -4.6531  -20.1417   20.1578 C.3     1  UNL1        0.0915
     14 C          -2.0145  -17.3249   21.0816 C.ar    1  UNL1        0.1415
     15 C          -2.7133  -18.4224   20.3353 C.ar    1  UNL1        0.0337
     16 C          -3.9543  -19.0441   20.9041 C.ar    1  UNL1       -0.0049
     17 C          -4.4964  -18.5682   22.2192 C.ar    1  UNL1        0.0337
     18 C          -3.7977  -17.4706   22.9655 C.ar    1  UNL1        0.1415
     19 C          -2.5567  -16.8490   22.3968 C.ar    1  UNL1        0.0737
     20 C           0.2794  -17.5686   19.8864 C.3     1  UNL1        0.2525
     21 O          -0.7736  -16.7032   20.5128 O.3     1  UNL1       -0.4713
     22 O          -4.3398  -16.9947   24.2806 O.3     1  UNL1       -0.4713
     23 C          -5.2077  -15.7726   24.3360 C.3     1  UNL1        0.2525
@<TRIPOS>BOND
     1    20    21    1
     2    21    14    1
     3    14    15   ar
     4    15    16   ar
     5    16    13    1
     6    13     1    1
     7     1     2    1
     8     2     3    2
     9     3     4    1
    10     4     5    2
    11     5     6    1
    12     6     7    2
    13     7    11    1
    14    11    12    1
    15     7     8    1
    16     8     9    1
    17     9    10    2
    18    16    17   ar
    19    17    18   ar
    20    18    22    1
    21    22    23    1
    22    18    19   ar
    23    19    14   ar
    24    10     2    1
    25     9     4    1
