@<TRIPOS>MOLECULE
*****
 31 34 0 0 0
SMALL
GASTEIGER

@<TRIPOS>ATOM
      1 C          -9.0264  -18.0171   21.6983 C.2     1  UNL1        0.0359
      2 C          -9.4820  -16.9185   22.6123 C.2     1  UNL1        0.1017
      3 N         -10.8159  -16.4343   22.1262 N.2     1  UNL1       -0.1513
      4 N         -11.1848  -17.2338   20.9118 N.2     1  UNL1       -0.1554
      5 C         -10.0788  -18.2119   20.6473 C.3     1  UNL1        0.2029
      6 N         -10.0332  -19.2098   19.5283 N.3     1  UNL1       -0.2983
      7 H          -9.4866  -20.0239   19.6166 H       1  UNL1        0.1209
      8 H         -10.5499  -19.0507   18.7056 H       1  UNL1        0.1209
      9 C          -8.7348  -16.3957   23.8033 C.ar    1  UNL1        0.0194
     10 C          -9.1545  -16.7954   25.1867 C.ar    1  UNL1        0.0046
     11 C          -8.4074  -16.2727   26.3777 C.ar    1  UNL1        0.0367
     12 C          -7.2404  -15.3501   26.1852 C.ar    1  UNL1        0.1337
     13 O          -6.4932  -14.8273   27.3762 O.3     1  UNL1       -0.5055
     14 C          -6.8207  -14.9503   24.8017 C.ar    1  UNL1        0.0367
     15 C          -7.5678  -15.4730   23.6108 C.ar    1  UNL1        0.0046
     16 H          -6.7555  -15.0771   28.2404 H       1  UNL1        0.2922
     17 C          -5.1585  -18.8978   21.5820 C.ar    1  UNL1        0.0000
     18 C          -5.1782  -20.3235   22.0477 C.ar    1  UNL1        0.0000
     19 C          -6.4807  -20.9805   22.3970 C.ar    1  UNL1       -0.0000
     20 C          -7.7635  -20.2117   22.2805 C.ar    1  UNL1       -0.0002
     21 C          -7.7437  -18.7859   21.8148 C.ar    1  UNL1        0.0007
     22 C          -6.4412  -18.1290   21.4655 C.ar    1  UNL1       -0.0002
     23 N          -1.3740  -17.9508   18.1496 N.pl3   1  UNL1       -0.3570
     24 C          -1.9638  -17.7673   19.5165 C.ar    1  UNL1        0.0415
     25 C          -1.2511  -16.9269   20.5342 C.ar    1  UNL1        0.0141
     26 C          -1.8408  -16.7434   21.9011 C.ar    1  UNL1        0.0013
     27 C          -3.1433  -17.4003   22.2504 C.ar    1  UNL1        0.0001
     28 C          -3.8560  -18.2408   21.2328 C.ar    1  UNL1        0.0012
     29 C          -3.2662  -18.4243   19.8658 C.ar    1  UNL1        0.0141
     30 H          -0.5192  -17.5197   17.9204 H       1  UNL1        0.1424
     31 H          -1.8418  -18.5025   17.4817 H       1  UNL1        0.1424
@<TRIPOS>BOND
     1    23    24    1
     2    24    25   ar
     3    25    26   ar
     4    26    27   ar
     5    27    28   ar
     6    28    17    1
     7    17    18   ar
     8    18    19   ar
     9    19    20   ar
    10    20    21   ar
    11    21     1    1
    12     1     2    2
    13     2     9    1
    14     9    10   ar
    15    10    11   ar
    16    11    12   ar
    17    12    13    1
    18    12    14   ar
    19    14    15   ar
    20     2     3    1
    21     3     4    2
    22     4     5    1
    23     5     6    1
    24    21    22   ar
    25    28    29   ar
    26    29    24   ar
    27    22    17   ar
    28     5     1    1
    29    15     9   ar
    30    23    30    1
    31    23    31    1
    32    13    16    1
    33     6     7    1
    34     6     8    1
@<TRIPOS>MOLECULE
*****
 31 34 0 0 0
SMALL
GASTEIGER

@<TRIPOS>ATOM
      1 C          -3.1986  -17.9155   21.1623 C.2     1  UNL1        0.0359
      2 C          -2.9328  -16.8671   22.2017 C.2     1  UNL1        0.1017
      3 N          -1.6745  -16.1450   21.8207 N.2     1  UNL1       -0.1513
      4 N          -1.1626  -16.7470   20.5457 N.2     1  UNL1       -0.1554
      5 C          -2.1045  -17.8412   20.1388 C.3     1  UNL1        0.2029
      6 N          -1.9750  -18.7088   18.9221 N.3     1  UNL1       -0.2983
      7 H          -2.7728  -19.1373   18.5359 H       1  UNL1        0.1209
      8 H          -1.0922  -18.8497   18.5097 H       1  UNL1        0.1209
      9 C          -3.7772  -16.5897   23.4100 C.ar    1  UNL1        0.0194
     10 C          -4.7750  -15.4700   23.3868 C.ar    1  UNL1        0.0046
     11 C          -5.6193  -15.1925   24.5951 C.ar    1  UNL1        0.0367
     12 C          -5.4658  -16.0348   25.8268 C.ar    1  UNL1        0.1337
     13 O          -6.3102  -15.7573   27.0352 O.3     1  UNL1       -0.5055
     14 C          -4.4679  -17.1545   25.8501 C.ar    1  UNL1        0.0367
     15 C          -3.6237  -17.4320   24.6418 C.ar    1  UNL1        0.0046
     16 H          -6.9335  -15.0578   27.0206 H       1  UNL1        0.2922
     17 C          -6.7710  -19.4889   21.8777 C.ar    1  UNL1        0.0000
     18 C          -6.6687  -20.7802   21.1215 C.ar    1  UNL1        0.0000
     19 C          -5.4096  -21.1167   20.3787 C.ar    1  UNL1       -0.0000
     20 C          -4.2529  -20.1617   20.3923 C.ar    1  UNL1       -0.0002
     21 C          -4.3553  -18.8704   21.1487 C.ar    1  UNL1        0.0007
     22 C          -5.6143  -18.5340   21.8913 C.ar    1  UNL1       -0.0002
     23 N         -10.1956  -15.9632   23.5635 N.pl3   1  UNL1       -0.3570
     24 C          -9.7423  -17.3895   23.4634 C.ar    1  UNL1        0.0415
     25 C         -10.5481  -18.4794   24.1058 C.ar    1  UNL1        0.0141
     26 C         -10.0949  -19.9058   24.0057 C.ar    1  UNL1        0.0013
     27 C          -8.8359  -20.2423   23.2630 C.ar    1  UNL1        0.0001
     28 C          -8.0301  -19.1524   22.6205 C.ar    1  UNL1        0.0012
     29 C          -8.4833  -17.7260   22.7207 C.ar    1  UNL1        0.0141
     30 H         -11.0219  -15.7423   24.0510 H       1  UNL1        0.1424
     31 H          -9.6667  -15.2478   23.1418 H       1  UNL1        0.1424
@<TRIPOS>BOND
     1    23    24    1
     2    24    25   ar
     3    25    26   ar
     4    26    27   ar
     5    27    28   ar
     6    28    17    1
     7    17    18   ar
     8    18    19   ar
     9    19    20   ar
    10    20    21   ar
    11    21     1    1
    12     1     2    2
    13     2     9    1
    14     9    10   ar
    15    10    11   ar
    16    11    12   ar
    17    12    13    1
    18    12    14   ar
    19    14    15   ar
    20     2     3    1
    21     3     4    2
    22     4     5    1
    23     5     6    1
    24    21    22   ar
    25    28    29   ar
    26    29    24   ar
    27    22    17   ar
    28     5     1    1
    29    15     9   ar
    30    23    30    1
    31    23    31    1
    32    13    16    1
    33     6     7    1
    34     6     8    1
@<TRIPOS>MOLECULE
*****
 31 34 0 0 0
SMALL
GASTEIGER

@<TRIPOS>ATOM
      1 C         -10.1870  -17.5513   21.8567 C.2     1  UNL1        0.0359
      2 C         -10.0953  -16.5385   22.9593 C.2     1  UNL1        0.1017
      3 N         -11.4780  -16.0261   23.2342 N.2     1  UNL1       -0.1513
      4 N         -12.4243  -16.7223   22.3016 N.2     1  UNL1       -0.1554
      5 C         -11.6264  -17.6649   21.4502 C.3     1  UNL1        0.2029
      6 N         -12.1721  -18.5634   20.3803 N.3     1  UNL1       -0.2983
      7 H         -11.6814  -19.3774   20.1234 H       1  UNL1        0.1209
      8 H         -13.0210  -18.3392   19.9349 H       1  UNL1        0.1209
      9 C          -8.8411  -16.1127   23.6633 C.ar    1  UNL1        0.0194
     10 C          -7.7651  -15.3906   22.9078 C.ar    1  UNL1        0.0046
     11 C          -6.5109  -14.9648   23.6119 C.ar    1  UNL1        0.0367
     12 C          -6.3326  -15.2612   25.0715 C.ar    1  UNL1        0.1337
     13 O          -5.0784  -14.8354   25.7755 O.3     1  UNL1       -0.5055
     14 C          -7.4087  -15.9833   25.8270 C.ar    1  UNL1        0.0367
     15 C          -8.6628  -16.4091   25.1230 C.ar    1  UNL1        0.0046
     16 H          -4.4063  -14.3843   25.3035 H       1  UNL1        0.2922
     17 C          -6.4989  -18.8465   21.1705 C.ar    1  UNL1        0.0000
     18 C          -6.7478  -19.8462   20.0803 C.ar    1  UNL1        0.0000
     19 C          -8.1431  -20.0810   19.5821 C.ar    1  UNL1       -0.0000
     20 C          -9.2895  -19.3160   20.1743 C.ar    1  UNL1       -0.0002
     21 C          -9.0406  -18.3163   21.2645 C.ar    1  UNL1        0.0007
     22 C          -7.6453  -18.0815   21.7626 C.ar    1  UNL1       -0.0002
     23 N          -1.3659  -18.8900   20.3640 N.pl3   1  UNL1       -0.3570
     24 C          -2.5372  -18.6335   21.2654 C.ar    1  UNL1        0.0415
     25 C          -2.3131  -18.1422   22.6648 C.ar    1  UNL1        0.0141
     26 C          -3.4844  -17.8857   23.5661 C.ar    1  UNL1        0.0013
     27 C          -4.8796  -18.1204   23.0681 C.ar    1  UNL1        0.0001
     28 C          -5.1036  -18.6117   21.6686 C.ar    1  UNL1        0.0012
     29 C          -3.9324  -18.8682   20.7673 C.ar    1  UNL1        0.0141
     30 H          -0.4502  -18.7359   20.6910 H       1  UNL1        0.1424
     31 H          -1.5130  -19.2125   19.4455 H       1  UNL1        0.1424
@<TRIPOS>BOND
     1    23    24    1
     2    24    25   ar
     3    25    26   ar
     4    26    27   ar
     5    27    28   ar
     6    28    17    1
     7    17    18   ar
     8    18    19   ar
     9    19    20   ar
    10    20    21   ar
    11    21     1    1
    12     1     2    2
    13     2     9    1
    14     9    10   ar
    15    10    11   ar
    16    11    12   ar
    17    12    13    1
    18    12    14   ar
    19    14    15   ar
    20     2     3    1
    21     3     4    2
    22     4     5    1
    23     5     6    1
    24    21    22   ar
    25    28    29   ar
    26    29    24   ar
    27    22    17   ar
    28     5     1    1
    29    15     9   ar
    30    23    30    1
    31    23    31    1
    32    13    16    1
    33     6     7    1
    34     6     8    1
@<TRIPOS>MOLECULE
*****
 31 34 0 0 0
SMALL
GASTEIGER

@<TRIPOS>ATOM
      1 C          -9.2370  -19.0117   22.9747 C.2     1  UNL1        0.0359
      2 C          -9.9791  -17.7082   22.9799 C.2     1  UNL1        0.1017
      3 N         -10.9590  -17.7371   24.1152 N.2     1  UNL1       -0.1513
      4 N         -10.8226  -19.0586   24.8117 N.2     1  UNL1       -0.1554
      5 C          -9.7583  -19.8463   24.1068 C.3     1  UNL1        0.2029
      6 N          -9.2964  -21.2264   24.4703 N.3     1  UNL1       -0.2983
      7 H          -8.3949  -21.5273   24.2136 H       1  UNL1        0.1209
      8 H          -9.8949  -21.8313   24.9656 H       1  UNL1        0.1209
      9 C          -9.7768  -16.5746   22.0186 C.ar    1  UNL1        0.0194
     10 C         -10.7921  -16.3100   20.9466 C.ar    1  UNL1        0.0046
     11 C         -10.5898  -15.1765   19.9853 C.ar    1  UNL1        0.0367
     12 C          -9.3722  -14.3075   20.0959 C.ar    1  UNL1        0.1337
     13 O          -9.1699  -13.1740   19.1346 O.3     1  UNL1       -0.5055
     14 C          -8.3568  -14.5722   21.1679 C.ar    1  UNL1        0.0367
     15 C          -8.5591  -15.7056   22.1292 C.ar    1  UNL1        0.0046
     16 H          -9.8041  -13.0087   18.4649 H       1  UNL1        0.2922
     17 C          -5.6743  -19.3584   21.2609 C.ar    1  UNL1        0.0000
     18 C          -6.0130  -20.2085   20.0724 C.ar    1  UNL1        0.0000
     19 C          -7.4263  -20.6597   19.8513 C.ar    1  UNL1       -0.0000
     20 C          -8.5010  -20.2608   20.8187 C.ar    1  UNL1       -0.0002
     21 C          -8.1623  -19.4106   22.0073 C.ar    1  UNL1        0.0007
     22 C          -6.7490  -18.9595   22.2284 C.ar    1  UNL1       -0.0002
     23 N          -0.8803  -18.5224   19.4393 N.pl3   1  UNL1       -0.3570
     24 C          -1.8640  -18.4892   20.5712 C.ar    1  UNL1        0.0415
     25 C          -1.4343  -18.0047   21.9242 C.ar    1  UNL1        0.0141
     26 C          -2.4180  -17.9714   23.0562 C.ar    1  UNL1        0.0013
     27 C          -3.8313  -18.4227   22.8351 C.ar    1  UNL1        0.0001
     28 C          -4.2609  -18.9071   21.4821 C.ar    1  UNL1        0.0012
     29 C          -3.2773  -18.9404   20.3502 C.ar    1  UNL1        0.0141
     30 H           0.0474  -18.2263   19.5844 H       1  UNL1        0.1424
     31 H          -1.1623  -18.8404   18.5513 H       1  UNL1        0.1424
@<TRIPOS>BOND
     1    23    24    1
     2    24    25   ar
     3    25    26   ar
     4    26    27   ar
     5    27    28   ar
     6    28    17    1
     7    17    18   ar
     8    18    19   ar
     9    19    20   ar
    10    20    21   ar
    11    21     1    1
    12     1     2    2
    13     2     9    1
    14     9    10   ar
    15    10    11   ar
    16    11    12   ar
    17    12    13    1
    18    12    14   ar
    19    14    15   ar
    20     2     3    1
    21     3     4    2
    22     4     5    1
    23     5     6    1
    24    21    22   ar
    25    28    29   ar
    26    29    24   ar
    27    22    17   ar
    28     5     1    1
    29    15     9   ar
    30    23    30    1
    31    23    31    1
    32    13    16    1
    33     6     7    1
    34     6     8    1
@<TRIPOS>MOLECULE
*****
 31 34 0 0 0
SMALL
GASTEIGER

@<TRIPOS>ATOM
      1 C           5.7871   -3.3868   23.6299 C.2     1  UNL1        0.0359
      2 C           6.2684   -3.9052   22.3071 C.2     1  UNL1        0.1017
      3 N           7.2834   -4.9776   22.5710 N.2     1  UNL1       -0.1513
      4 N           7.4295   -5.1220   24.0569 N.2     1  UNL1       -0.1554
      5 C           6.5047   -4.1388   24.7113 C.3     1  UNL1        0.2029
      6 N           6.3285   -3.9423   26.1879 N.3     1  UNL1       -0.2983
      7 H           5.4902   -3.5623   26.5373 H       1  UNL1        0.1209
      8 H           7.0512   -4.1932   26.8076 H       1  UNL1        0.1209
      9 C           5.8143   -3.4339   20.9574 C.ar    1  UNL1        0.0194
     10 C           6.5223   -2.2965   20.2828 C.ar    1  UNL1        0.0046
     11 C           6.0682   -1.8252   18.9331 C.ar    1  UNL1        0.0367
     12 C           4.9062   -2.4914   18.2579 C.ar    1  UNL1        0.1337
     13 O           4.4522   -2.0201   16.9082 O.3     1  UNL1       -0.5055
     14 C           4.1982   -3.6288   18.9325 C.ar    1  UNL1        0.0367
     15 C           4.6522   -4.1001   20.2822 C.ar    1  UNL1        0.0046
     16 H           4.8944   -1.3096   16.4868 H       1  UNL1        0.2922
     17 C           2.9588   -0.7072   22.8746 C.ar    1  UNL1        0.0000
     18 C           2.7278   -0.1447   24.2457 C.ar    1  UNL1        0.0000
     19 C           3.5166   -0.6628   25.4117 C.ar    1  UNL1       -0.0000
     20 C           4.5364   -1.7435   25.2064 C.ar    1  UNL1       -0.0002
     21 C           4.7673   -2.3061   23.8352 C.ar    1  UNL1        0.0007
     22 C           3.9786   -1.7879   22.6693 C.ar    1  UNL1       -0.0002
     23 N          -0.8710    2.2588   20.9942 N.pl3   1  UNL1       -0.3570
     24 C           0.2552    1.2940   20.7685 C.ar    1  UNL1        0.0415
     25 C           0.5925    0.8473   19.3769 C.ar    1  UNL1        0.0141
     26 C           1.7186   -0.1175   19.1511 C.ar    1  UNL1        0.0013
     27 C           2.5074   -0.6357   20.3170 C.ar    1  UNL1        0.0001
     28 C           2.1700   -0.1890   21.7086 C.ar    1  UNL1        0.0012
     29 C           1.0439    0.7758   21.9343 C.ar    1  UNL1        0.0141
     30 H          -1.3886    2.5989   20.2290 H       1  UNL1        0.1424
     31 H          -1.0924    2.5520   21.9076 H       1  UNL1        0.1424
@<TRIPOS>BOND
     1    23    24    1
     2    24    25   ar
     3    25    26   ar
     4    26    27   ar
     5    27    28   ar
     6    28    17    1
     7    17    18   ar
     8    18    19   ar
     9    19    20   ar
    10    20    21   ar
    11    21     1    1
    12     1     2    2
    13     2     9    1
    14     9    10   ar
    15    10    11   ar
    16    11    12   ar
    17    12    13    1
    18    12    14   ar
    19    14    15   ar
    20     2     3    1
    21     3     4    2
    22     4     5    1
    23     5     6    1
    24    21    22   ar
    25    28    29   ar
    26    29    24   ar
    27    22    17   ar
    28     5     1    1
    29    15     9   ar
    30    23    30    1
    31    23    31    1
    32    13    16    1
    33     6     7    1
    34     6     8    1
@<TRIPOS>MOLECULE
*****
 31 34 0 0 0
SMALL
GASTEIGER

@<TRIPOS>ATOM
      1 C          -4.7706  -17.4928   22.3061 C.2     1  UNL1        0.0359
      2 C          -4.6183  -16.3219   23.2312 C.2     1  UNL1        0.1017
      3 N          -3.3391  -15.6198   22.8837 N.2     1  UNL1       -0.1513
      4 N          -2.7008  -16.3568   21.7438 N.2     1  UNL1       -0.1554
      5 C          -3.5855  -17.5144   21.3868 C.3     1  UNL1        0.2029
      6 N          -3.3300  -18.5174   20.3012 N.3     1  UNL1       -0.2983
      7 H          -4.0819  -19.0082   19.8975 H       1  UNL1        0.1209
      8 H          -2.4103  -18.6849   19.9923 H       1  UNL1        0.1209
      9 C          -5.5769  -15.9231   24.3138 C.ar    1  UNL1        0.0194
     10 C          -5.1611  -16.0080   25.7525 C.ar    1  UNL1        0.0046
     11 C          -6.1197  -15.6092   26.8351 C.ar    1  UNL1        0.0367
     12 C          -7.4942  -15.1254   26.4790 C.ar    1  UNL1        0.1337
     13 O          -8.4528  -14.7266   27.5616 O.3     1  UNL1       -0.5055
     14 C          -7.9100  -15.0405   25.0402 C.ar    1  UNL1        0.0367
     15 C          -6.9515  -15.4393   23.9577 C.ar    1  UNL1        0.0046
     16 H          -8.1930  -14.7796   28.4603 H       1  UNL1        0.2922
     17 C          -8.4610  -18.9523   22.3332 C.ar    1  UNL1        0.0000
     18 C          -8.1835  -20.4257   22.2913 C.ar    1  UNL1        0.0000
     19 C          -6.7682  -20.9216   22.2543 C.ar    1  UNL1       -0.0000
     20 C          -5.6306  -19.9440   22.2592 C.ar    1  UNL1       -0.0002
     21 C          -5.9082  -18.4704   22.3012 C.ar    1  UNL1        0.0007
     22 C          -7.3234  -17.9746   22.3381 C.ar    1  UNL1       -0.0002
     23 N         -12.3759  -16.3479   20.1216 N.pl3   1  UNL1       -0.3570
     24 C         -11.8336  -17.1542   21.2643 C.ar    1  UNL1        0.0415
     25 C         -12.7065  -17.4646   22.4440 C.ar    1  UNL1        0.0141
     26 C         -12.1643  -18.2709   23.5868 C.ar    1  UNL1        0.0013
     27 C         -10.7491  -18.7668   23.5498 C.ar    1  UNL1        0.0001
     28 C          -9.8762  -18.4564   22.3702 C.ar    1  UNL1        0.0012
     29 C         -10.4185  -17.6501   21.2274 C.ar    1  UNL1        0.0141
     30 H         -13.3047  -16.0225   20.1458 H       1  UNL1        0.1424
     31 H         -11.8030  -16.1442   19.3473 H       1  UNL1        0.1424
@<TRIPOS>BOND
     1    23    24    1
     2    24    25   ar
     3    25    26   ar
     4    26    27   ar
     5    27    28   ar
     6    28    17    1
     7    17    18   ar
     8    18    19   ar
     9    19    20   ar
    10    20    21   ar
    11    21     1    1
    12     1     2    2
    13     2     9    1
    14     9    10   ar
    15    10    11   ar
    16    11    12   ar
    17    12    13    1
    18    12    14   ar
    19    14    15   ar
    20     2     3    1
    21     3     4    2
    22     4     5    1
    23     5     6    1
    24    21    22   ar
    25    28    29   ar
    26    29    24   ar
    27    22    17   ar
    28     5     1    1
    29    15     9   ar
    30    23    30    1
    31    23    31    1
    32    13    16    1
    33     6     7    1
    34     6     8    1
@<TRIPOS>MOLECULE
*****
 31 34 0 0 0
SMALL
GASTEIGER

@<TRIPOS>ATOM
      1 C          -7.4067  -16.6876   23.9441 C.2     1  UNL1        0.0359
      2 C          -8.8186  -16.2503   24.1995 C.2     1  UNL1        0.1017
      3 N          -8.8009  -15.2614   25.3272 N.2     1  UNL1       -0.1513
      4 N          -7.3779  -15.0875   25.7688 N.2     1  UNL1       -0.1554
      5 C          -6.5163  -15.9689   24.9140 C.3     1  UNL1        0.2029
      6 N          -5.0259  -16.1073   25.0119 N.3     1  UNL1       -0.2983
      7 H          -4.5067  -16.4041   24.2299 H       1  UNL1        0.1209
      8 H          -4.5670  -15.9014   25.8582 H       1  UNL1        0.1209
      9 C         -10.0348  -16.7195   23.4574 C.ar    1  UNL1        0.0194
     10 C         -10.4054  -16.0872   22.1487 C.ar    1  UNL1        0.0046
     11 C         -11.6216  -16.5564   21.4067 C.ar    1  UNL1        0.0367
     12 C         -12.4673  -17.6581   21.9734 C.ar    1  UNL1        0.1337
     13 O         -13.6835  -18.1273   21.2313 O.3     1  UNL1       -0.5055
     14 C         -12.0968  -18.2904   23.2822 C.ar    1  UNL1        0.0367
     15 C         -10.8806  -17.8212   24.0241 C.ar    1  UNL1        0.0046
     16 H         -13.9150  -17.7323   20.4138 H       1  UNL1        0.2922
     17 C          -5.0972  -18.6513   21.3829 C.ar    1  UNL1        0.0000
     18 C          -6.0758  -19.6374   20.8172 C.ar    1  UNL1        0.0000
     19 C          -7.4981  -19.6402   21.2939 C.ar    1  UNL1       -0.0000
     20 C          -7.9417  -18.6569   22.3361 C.ar    1  UNL1       -0.0002
     21 C          -6.9630  -17.6708   22.9018 C.ar    1  UNL1        0.0007
     22 C          -5.5408  -17.6680   22.4251 C.ar    1  UNL1       -0.0002
     23 N          -1.6050  -17.7304   17.6470 N.pl3   1  UNL1       -0.3570
     24 C          -1.9288  -18.1880   19.0383 C.ar    1  UNL1        0.0415
     25 C          -0.8304  -18.6428   19.9529 C.ar    1  UNL1        0.0141
     26 C          -1.1542  -19.1004   21.3442 C.ar    1  UNL1        0.0013
     27 C          -2.5765  -19.1033   21.8209 C.ar    1  UNL1        0.0001
     28 C          -3.6749  -18.6485   20.9062 C.ar    1  UNL1        0.0012
     29 C          -3.3511  -18.1909   19.5149 C.ar    1  UNL1        0.0141
     30 H          -0.6716  -17.7285   17.3341 H       1  UNL1        0.1424
     31 H          -2.3260  -17.4319   17.0467 H       1  UNL1        0.1424
@<TRIPOS>BOND
     1    23    24    1
     2    24    25   ar
     3    25    26   ar
     4    26    27   ar
     5    27    28   ar
     6    28    17    1
     7    17    18   ar
     8    18    19   ar
     9    19    20   ar
    10    20    21   ar
    11    21     1    1
    12     1     2    2
    13     2     9    1
    14     9    10   ar
    15    10    11   ar
    16    11    12   ar
    17    12    13    1
    18    12    14   ar
    19    14    15   ar
    20     2     3    1
    21     3     4    2
    22     4     5    1
    23     5     6    1
    24    21    22   ar
    25    28    29   ar
    26    29    24   ar
    27    22    17   ar
    28     5     1    1
    29    15     9   ar
    30    23    30    1
    31    23    31    1
    32    13    16    1
    33     6     7    1
    34     6     8    1
@<TRIPOS>MOLECULE
*****
 31 34 0 0 0
SMALL
GASTEIGER

@<TRIPOS>ATOM
      1 C          -3.9480  -18.7023   22.1290 C.2     1  UNL1        0.0359
      2 C          -4.1621  -19.7058   21.0350 C.2     1  UNL1        0.1017
      3 N          -2.8413  -20.3480   20.7299 N.2     1  UNL1       -0.1513
      4 N          -1.8108  -19.7414   21.6354 N.2     1  UNL1       -0.1554
      5 C          -2.4948  -18.7243   22.5002 C.3     1  UNL1        0.2029
      6 N          -1.8403  -17.8778   23.5514 N.3     1  UNL1       -0.2983
      7 H          -2.3750  -17.5142   24.2939 H       1  UNL1        0.1209
      8 H          -0.8762  -17.6858   23.4990 H       1  UNL1        0.1209
      9 C          -5.4679  -20.0132   20.3637 C.ar    1  UNL1        0.0194
     10 C          -5.8523  -21.4364   20.0871 C.ar    1  UNL1        0.0046
     11 C          -7.1580  -21.7438   19.4159 C.ar    1  UNL1        0.0367
     12 C          -8.0794  -20.6279   19.0213 C.ar    1  UNL1        0.1337
     13 O          -9.3852  -20.9353   18.3501 O.3     1  UNL1       -0.5055
     14 C          -7.6950  -19.2046   19.2979 C.ar    1  UNL1        0.0367
     15 C          -6.3893  -18.8972   19.9691 C.ar    1  UNL1        0.0046
     16 H          -9.6253  -21.8244   18.1773 H       1  UNL1        0.2922
     17 C          -7.5040  -17.3265   23.2298 C.ar    1  UNL1        0.0000
     18 C          -7.1098  -16.0852   23.9740 C.ar    1  UNL1        0.0000
     19 C          -5.6616  -15.7163   24.1033 C.ar    1  UNL1       -0.0000
     20 C          -4.6076  -16.5886   23.4883 C.ar    1  UNL1       -0.0002
     21 C          -5.0019  -17.8299   22.7440 C.ar    1  UNL1        0.0007
     22 C          -6.4500  -18.1988   22.6148 C.ar    1  UNL1       -0.0002
     23 N         -12.4713  -15.9187   22.6434 N.pl3   1  UNL1       -0.3570
     24 C         -11.4358  -16.9915   22.8073 C.ar    1  UNL1        0.0415
     25 C         -11.8485  -18.4332   22.8420 C.ar    1  UNL1        0.0141
     26 C         -10.8130  -19.5060   23.0060 C.ar    1  UNL1        0.0013
     27 C          -9.3649  -19.1371   23.1352 C.ar    1  UNL1        0.0001
     28 C          -8.9522  -17.6954   23.1005 C.ar    1  UNL1        0.0012
     29 C          -9.9877  -16.6226   22.9366 C.ar    1  UNL1        0.0141
     30 H         -13.4218  -16.1608   22.5586 H       1  UNL1        0.1424
     31 H         -12.2005  -14.9725   22.6206 H       1  UNL1        0.1424
@<TRIPOS>BOND
     1    23    24    1
     2    24    25   ar
     3    25    26   ar
     4    26    27   ar
     5    27    28   ar
     6    28    17    1
     7    17    18   ar
     8    18    19   ar
     9    19    20   ar
    10    20    21   ar
    11    21     1    1
    12     1     2    2
    13     2     9    1
    14     9    10   ar
    15    10    11   ar
    16    11    12   ar
    17    12    13    1
    18    12    14   ar
    19    14    15   ar
    20     2     3    1
    21     3     4    2
    22     4     5    1
    23     5     6    1
    24    21    22   ar
    25    28    29   ar
    26    29    24   ar
    27    22    17   ar
    28     5     1    1
    29    15     9   ar
    30    23    30    1
    31    23    31    1
    32    13    16    1
    33     6     7    1
    34     6     8    1
@<TRIPOS>MOLECULE
*****
 31 34 0 0 0
SMALL
GASTEIGER

@<TRIPOS>ATOM
      1 C           4.2917   -2.3973   21.4359 C.2     1  UNL1        0.0359
      2 C           3.4948   -2.3191   20.1675 C.2     1  UNL1        0.1017
      3 N           3.6069   -3.6410   19.4674 N.2     1  UNL1       -0.1513
      4 N           4.4731   -4.5361   20.3031 N.2     1  UNL1       -0.1554
      5 C           4.8963   -3.7675   21.5197 C.3     1  UNL1        0.2029
      6 N           5.7706   -4.2792   22.6259 N.3     1  UNL1       -0.2983
      7 H           5.7162   -3.8765   23.5227 H       1  UNL1        0.1209
      8 H           6.3988   -5.0178   22.4552 H       1  UNL1        0.1209
      9 C           2.7216   -1.1281   19.6840 C.ar    1  UNL1        0.0194
     10 C           3.3211   -0.2095   18.6610 C.ar    1  UNL1        0.0046
     11 C           2.5479    0.9814   18.1775 C.ar    1  UNL1        0.0367
     12 C           1.1750    1.2538   18.7171 C.ar    1  UNL1        0.1337
     13 O           0.4018    2.4447   18.2336 O.3     1  UNL1       -0.5055
     14 C           0.5755    0.3351   19.7402 C.ar    1  UNL1        0.0367
     15 C           1.3487   -0.8558   20.2236 C.ar    1  UNL1        0.0046
     16 H           0.7764    3.0185   17.5946 H       1  UNL1        0.2922
     17 C           3.4566    0.2155   24.3040 C.ar    1  UNL1        0.0000
     18 C           4.7824    0.8998   24.4589 C.ar    1  UNL1        0.0000
     19 C           5.9447    0.4852   23.6060 C.ar    1  UNL1       -0.0000
     20 C           5.7811   -0.6139   22.5984 C.ar    1  UNL1       -0.0002
     21 C           4.4553   -1.2982   22.4436 C.ar    1  UNL1        0.0007
     22 C           3.2931   -0.8835   23.2964 C.ar    1  UNL1       -0.0002
     23 N           1.4116    1.1124   28.9959 N.pl3   1  UNL1       -0.3570
     24 C           1.2719    1.0786   27.5028 C.ar    1  UNL1        0.0415
     25 C          -0.0300    1.4595   26.8625 C.ar    1  UNL1        0.0141
     26 C          -0.1697    1.4257   25.3694 C.ar    1  UNL1        0.0013
     27 C           0.9925    1.0110   24.5166 C.ar    1  UNL1        0.0001
     28 C           2.2944    0.6302   25.1569 C.ar    1  UNL1        0.0012
     29 C           2.4341    0.6640   26.6499 C.ar    1  UNL1        0.0141
     30 H           0.6488    1.3845   29.5556 H       1  UNL1        0.1424
     31 H           2.2661    0.8624   29.4161 H       1  UNL1        0.1424
@<TRIPOS>BOND
     1    23    24    1
     2    24    25   ar
     3    25    26   ar
     4    26    27   ar
     5    27    28   ar
     6    28    17    1
     7    17    18   ar
     8    18    19   ar
     9    19    20   ar
    10    20    21   ar
    11    21     1    1
    12     1     2    2
    13     2     9    1
    14     9    10   ar
    15    10    11   ar
    16    11    12   ar
    17    12    13    1
    18    12    14   ar
    19    14    15   ar
    20     2     3    1
    21     3     4    2
    22     4     5    1
    23     5     6    1
    24    21    22   ar
    25    28    29   ar
    26    29    24   ar
    27    22    17   ar
    28     5     1    1
    29    15     9   ar
    30    23    30    1
    31    23    31    1
    32    13    16    1
    33     6     7    1
    34     6     8    1
