@<TRIPOS>MOLECULE
*****
 34 38 0 0 0
SMALL
GASTEIGER

@<TRIPOS>ATOM
      1 C           3.9457   -0.2491   31.9905 C.3     1  UNL1        0.0557
      2 C           3.1466   -0.2025   30.7219 C.ar    1  UNL1        0.0995
      3 N           1.7363    0.2900   30.5858 N.ar    1  UNL1       -0.1705
      4 N           1.3357    0.1566   29.1465 N.ar    1  UNL1       -0.2308
      5 C           2.4984   -0.4184   28.3930 C.ar    1  UNL1        0.1800
      6 N           2.6825   -0.7685   26.9461 N.ar    1  UNL1       -0.2090
      7 C           3.9858   -1.3405   26.4730 C.ar    1  UNL1        0.1527
      8 C           5.1051   -1.5625   27.4466 C.ar    1  UNL1        0.1332
      9 N           4.9209   -1.2124   28.8935 N.ar    1  UNL1       -0.2366
     10 C           3.6176   -0.6403   29.3667 C.ar    1  UNL1        0.1319
     11 N           4.1700   -1.6907   25.0260 N.pl3   1  UNL1       -0.2919
     12 C           5.1506   -2.5212   24.2523 C.3     1  UNL1        0.0939
     13 C           4.4306   -2.1859   22.9798 C.3     1  UNL1        0.0409
     14 C           3.4500   -1.3554   23.7536 C.3     1  UNL1        0.0939
     15 C           4.6148   -2.5361   21.5330 C.3     1  UNL1        0.0193
     16 C           4.4697   -3.9591   21.0813 C.3     1  UNL1        0.0029
     17 C           4.6539   -4.3092   19.6344 C.3     1  UNL1        0.0174
     18 C           4.9832   -3.2363   18.6392 C.3     1  UNL1        0.0722
     19 N           5.1283   -1.8133   19.0908 N.3     1  UNL1       -0.2706
     20 C           4.9441   -1.4632   20.5377 C.3     1  UNL1        0.0722
     21 C           5.4576   -0.7404   18.0956 C.3     1  UNL1        0.1042
     22 C           4.4291   -0.3051   17.0942 C.3     1  UNL1        0.1544
     23 O           3.7808   -1.3170   16.1967 O.3     1  UNL1       -0.3805
     24 H           4.4452   -1.6890   15.5958 H       1  UNL1        0.2105
     25 C           0.0059    0.5322   28.5630 C.3     1  UNL1        0.1298
     26 C          -1.2346   -0.1910   28.9965 C.3     1  UNL1        0.0313
     27 C          -0.0834    1.6312   27.5459 C.ar    1  UNL1        0.0106
     28 C          -0.4113    1.3071   26.1184 C.ar    1  UNL1       -0.0007
     29 C          -0.5006    2.4061   25.1015 C.ar    1  UNL1        0.0112
     30 C          -0.2621    3.8290   25.5118 C.ar    1  UNL1        0.0585
     31 CL         -0.3514    4.9279   24.4947 Cl      1  UNL1       -0.0822
     32 C           0.0658    4.1530   26.9392 C.ar    1  UNL1        0.0225
     33 C           0.1551    3.0541   27.9562 C.ar    1  UNL1        0.0563
     34 CL          0.4830    3.3780   29.3837 Cl      1  UNL1       -0.0825
@<TRIPOS>BOND
     1     1     2    1
     2     2     3   ar
     3     3     4   ar
     4     4    25    1
     5    25    26    1
     6    25    27    1
     7    27    28   ar
     8    28    29   ar
     9    29    30   ar
    10    30    31    1
    11    30    32   ar
    12    32    33   ar
    13    33    34    1
    14     4     5   ar
    15     5     6   ar
    16     6     7   ar
    17     7    11    1
    18    11    12    1
    19    12    13    1
    20    15    13    1
    21    15    16    1
    22    16    17    1
    23    17    18    1
    24    18    19    1
    25    19    21    1
    26    21    22    1
    27    22    23    1
    28    19    20    1
    29    13    14    1
    30     7     8   ar
    31     8     9   ar
    32     9    10   ar
    33    10     2   ar
    34    33    27   ar
    35    10     5   ar
    36    14    11    1
    37    20    15    1
    38    23    24    1
@<TRIPOS>MOLECULE
*****
 34 38 0 0 0
SMALL
GASTEIGER

@<TRIPOS>ATOM
      1 C           8.0174    0.9840   17.5867 C.3     1  UNL1        0.0557
      2 C           7.1138    0.0833   18.3756 C.ar    1  UNL1        0.0995
      3 N           5.6405   -0.0969   18.1588 N.ar    1  UNL1       -0.1705
      4 N           5.1411   -1.0868   19.1691 N.ar    1  UNL1       -0.2308
      5 C           6.3056   -1.5184   20.0102 C.ar    1  UNL1        0.1800
      6 N           6.4134   -2.4765   21.1593 N.ar    1  UNL1       -0.2090
      7 C           7.7404   -2.7114   21.8180 C.ar    1  UNL1        0.1527
      8 C           8.9596   -1.9882   21.3276 C.ar    1  UNL1        0.1332
      9 N           8.8518   -1.0301   20.1785 N.ar    1  UNL1       -0.2366
     10 C           7.5249   -0.7952   19.5198 C.ar    1  UNL1        0.1319
     11 N           7.8482   -3.6695   22.9671 N.pl3   1  UNL1       -0.2919
     12 C           6.8668   -4.4159   23.8214 C.3     1  UNL1        0.0939
     13 C           8.0006   -5.0245   24.5922 C.3     1  UNL1        0.0409
     14 C           8.9820   -4.2782   23.7379 C.3     1  UNL1        0.0939
     15 C           8.1083   -5.9826   25.7412 C.3     1  UNL1        0.0193
     16 C           8.2249   -7.4553   25.4814 C.3     1  UNL1        0.0029
     17 C           8.3327   -8.4134   26.6306 C.3     1  UNL1        0.0174
     18 C           8.3239   -7.8988   28.0395 C.3     1  UNL1        0.0722
     19 N           8.2073   -6.4260   28.2993 N.3     1  UNL1       -0.2706
     20 C           8.0996   -5.4680   27.1502 C.3     1  UNL1        0.0722
     21 C           8.1985   -5.9114   29.7082 C.3     1  UNL1        0.1042
     22 C           6.9005   -5.5450   30.3648 C.3     1  UNL1        0.1544
     23 O           6.5559   -6.1084   31.7115 O.3     1  UNL1       -0.3805
     24 H           6.4360   -7.0683   31.6393 H       1  UNL1        0.2105
     25 C           3.7255   -1.5618   19.3130 C.3     1  UNL1        0.1298
     26 C           3.4076   -3.0220   19.1842 C.3     1  UNL1        0.0313
     27 C           2.6278   -0.5765   19.5856 C.ar    1  UNL1        0.0106
     28 C           1.9920    0.1709   18.4511 C.ar    1  UNL1       -0.0007
     29 C           0.8943    1.1562   18.7239 C.ar    1  UNL1        0.0112
     30 C           0.4326    1.3941   20.1310 C.ar    1  UNL1        0.0585
     31 CL         -0.6651    2.3794   20.4037 Cl      1  UNL1       -0.0822
     32 C           1.0684    0.6467   21.2656 C.ar    1  UNL1        0.0225
     33 C           2.1660   -0.3386   20.9928 C.ar    1  UNL1        0.0563
     34 CL          2.8020   -1.0860   22.1273 Cl      1  UNL1       -0.0825
@<TRIPOS>BOND
     1     1     2    1
     2     2     3   ar
     3     3     4   ar
     4     4    25    1
     5    25    26    1
     6    25    27    1
     7    27    28   ar
     8    28    29   ar
     9    29    30   ar
    10    30    31    1
    11    30    32   ar
    12    32    33   ar
    13    33    34    1
    14     4     5   ar
    15     5     6   ar
    16     6     7   ar
    17     7    11    1
    18    11    12    1
    19    12    13    1
    20    15    13    1
    21    15    16    1
    22    16    17    1
    23    17    18    1
    24    18    19    1
    25    19    21    1
    26    21    22    1
    27    22    23    1
    28    19    20    1
    29    13    14    1
    30     7     8   ar
    31     8     9   ar
    32     9    10   ar
    33    10     2   ar
    34    33    27   ar
    35    10     5   ar
    36    14    11    1
    37    20    15    1
    38    23    24    1
@<TRIPOS>MOLECULE
*****
 34 38 0 0 0
SMALL
GASTEIGER

@<TRIPOS>ATOM
      1 C           9.0377   -5.2141   21.7769 C.3     1  UNL1        0.0557
      2 C           7.6778   -4.5870   21.6905 C.ar    1  UNL1        0.0995
      3 N           6.7462   -4.6599   20.5171 N.ar    1  UNL1       -0.1705
      4 N           5.5034   -3.8948   20.8638 N.ar    1  UNL1       -0.2308
      5 C           5.6670   -3.3491   22.2514 C.ar    1  UNL1        0.1800
      6 N           4.7658   -2.5179   23.1156 N.ar    1  UNL1       -0.2090
      7 C           5.2085   -2.1145   24.4908 C.ar    1  UNL1        0.1527
      8 C           6.5524   -2.5422   25.0018 C.ar    1  UNL1        0.1332
      9 N           7.4535   -3.3734   24.1375 N.ar    1  UNL1       -0.2366
     10 C           7.0108   -3.7768   22.7623 C.ar    1  UNL1        0.1319
     11 N           4.3073   -1.2832   25.3552 N.pl3   1  UNL1       -0.2919
     12 C           3.8478   -1.3506   26.7814 C.3     1  UNL1        0.0939
     13 C           3.0329   -0.1078   26.5776 C.3     1  UNL1        0.0409
     14 C           3.4925   -0.0404   25.1513 C.3     1  UNL1        0.0939
     15 C           2.1318    0.7234   27.4419 C.3     1  UNL1        0.0193
     16 C           0.7088    0.9609   27.0315 C.3     1  UNL1        0.0029
     17 C          -0.1924    1.7921   27.8959 C.3     1  UNL1        0.0174
     18 C           0.3296    2.3858   29.1706 C.3     1  UNL1        0.0722
     19 N           1.7527    2.1483   29.5811 N.3     1  UNL1       -0.2706
     20 C           2.6538    1.3171   28.7167 C.3     1  UNL1        0.0722
     21 C           2.2746    2.7420   30.8558 C.3     1  UNL1        0.1042
     22 C           2.2244    1.9491   32.1282 C.3     1  UNL1        0.1544
     23 O           0.9110    1.7122   32.8129 O.3     1  UNL1       -0.3805
     24 H           0.5566    2.5563   33.1335 H       1  UNL1        0.2105
     25 C           4.3071   -3.7083   19.9783 C.3     1  UNL1        0.1298
     26 C           3.5134   -4.8991   19.5291 C.3     1  UNL1        0.0313
     27 C           3.9045   -2.3307   19.5419 C.ar    1  UNL1        0.0106
     28 C           2.7148   -1.6639   20.1665 C.ar    1  UNL1       -0.0007
     29 C           2.3123   -0.2864   19.7301 C.ar    1  UNL1        0.0112
     30 C           3.0994    0.4243   18.6693 C.ar    1  UNL1        0.0585
     31 CL          2.6968    1.8018   18.2329 Cl      1  UNL1       -0.0822
     32 C           4.2891   -0.2425   18.0447 C.ar    1  UNL1        0.0225
     33 C           4.6916   -1.6200   18.4811 C.ar    1  UNL1        0.0563
     34 CL          5.8813   -2.2869   17.8566 Cl      1  UNL1       -0.0825
@<TRIPOS>BOND
     1     1     2    1
     2     2     3   ar
     3     3     4   ar
     4     4    25    1
     5    25    26    1
     6    25    27    1
     7    27    28   ar
     8    28    29   ar
     9    29    30   ar
    10    30    31    1
    11    30    32   ar
    12    32    33   ar
    13    33    34    1
    14     4     5   ar
    15     5     6   ar
    16     6     7   ar
    17     7    11    1
    18    11    12    1
    19    12    13    1
    20    15    13    1
    21    15    16    1
    22    16    17    1
    23    17    18    1
    24    18    19    1
    25    19    21    1
    26    21    22    1
    27    22    23    1
    28    19    20    1
    29    13    14    1
    30     7     8   ar
    31     8     9   ar
    32     9    10   ar
    33    10     2   ar
    34    33    27   ar
    35    10     5   ar
    36    14    11    1
    37    20    15    1
    38    23    24    1
@<TRIPOS>MOLECULE
*****
 34 38 0 0 0
SMALL
GASTEIGER

@<TRIPOS>ATOM
      1 C           6.5428    1.0112   16.1055 C.3     1  UNL1        0.0557
      2 C           5.9003    0.2528   17.2289 C.ar    1  UNL1        0.0995
      3 N           6.0740   -1.2086   17.5190 N.ar    1  UNL1       -0.1705
      4 N           5.2522   -1.5419   18.7288 N.ar    1  UNL1       -0.2308
      5 C           4.5706   -0.2865   19.1864 C.ar    1  UNL1        0.1800
      6 N           3.6370   -0.0100   20.3274 N.ar    1  UNL1       -0.2090
      7 C           3.1040    1.3756   20.5414 C.ar    1  UNL1        0.1527
      8 C           3.5045    2.4848   19.6144 C.ar    1  UNL1        0.1332
      9 N           4.4381    2.2083   18.4734 N.ar    1  UNL1       -0.2366
     10 C           4.9711    0.8227   18.2594 C.ar    1  UNL1        0.1319
     11 N           2.1703    1.6521   21.6825 N.pl3   1  UNL1       -0.2919
     12 C           0.9726    0.9614   22.2641 C.3     1  UNL1        0.0939
     13 C           0.8500    2.0431   23.2961 C.3     1  UNL1        0.0409
     14 C           2.0477    2.7337   22.7145 C.3     1  UNL1        0.0939
     15 C          -0.0837    2.3195   24.4371 C.3     1  UNL1        0.0193
     16 C          -1.2808    3.1993   24.2303 C.3     1  UNL1        0.0029
     17 C          -2.2145    3.4757   25.3714 C.3     1  UNL1        0.0174
     18 C          -1.9509    2.8724   26.7191 C.3     1  UNL1        0.0722
     19 N          -0.7537    1.9926   26.9259 N.3     1  UNL1       -0.2706
     20 C           0.1799    1.7161   25.7849 C.3     1  UNL1        0.0722
     21 C          -0.4902    1.3893   28.2737 C.3     1  UNL1        0.1042
     22 C          -1.4315    0.3644   28.8337 C.3     1  UNL1        0.1544
     23 O          -0.8923   -0.8963   29.4418 O.3     1  UNL1       -0.3805
     24 H          -0.4628   -1.4290   28.7543 H       1  UNL1        0.2105
     25 C           5.1329   -2.8933   19.3686 C.3     1  UNL1        0.1298
     26 C           4.6556   -4.0651   18.5631 C.3     1  UNL1        0.0313
     27 C           5.4911   -3.0729   20.8142 C.ar    1  UNL1        0.0106
     28 C           4.4217   -3.0155   21.8646 C.ar    1  UNL1       -0.0007
     29 C           4.7799   -3.1951   23.3100 C.ar    1  UNL1        0.0112
     30 C           6.2074   -3.4322   23.7052 C.ar    1  UNL1        0.0585
     31 CL          6.5655   -3.6118   25.1507 Cl      1  UNL1       -0.0822
     32 C           7.2767   -3.4896   22.6548 C.ar    1  UNL1        0.0225
     33 C           6.9185   -3.3100   21.2094 C.ar    1  UNL1        0.0563
     34 CL          7.9878   -3.3674   20.1590 Cl      1  UNL1       -0.0825
@<TRIPOS>BOND
     1     1     2    1
     2     2     3   ar
     3     3     4   ar
     4     4    25    1
     5    25    26    1
     6    25    27    1
     7    27    28   ar
     8    28    29   ar
     9    29    30   ar
    10    30    31    1
    11    30    32   ar
    12    32    33   ar
    13    33    34    1
    14     4     5   ar
    15     5     6   ar
    16     6     7   ar
    17     7    11    1
    18    11    12    1
    19    12    13    1
    20    15    13    1
    21    15    16    1
    22    16    17    1
    23    17    18    1
    24    18    19    1
    25    19    21    1
    26    21    22    1
    27    22    23    1
    28    19    20    1
    29    13    14    1
    30     7     8   ar
    31     8     9   ar
    32     9    10   ar
    33    10     2   ar
    34    33    27   ar
    35    10     5   ar
    36    14    11    1
    37    20    15    1
    38    23    24    1
@<TRIPOS>MOLECULE
*****
 34 38 0 0 0
SMALL
GASTEIGER

@<TRIPOS>ATOM
      1 C          -1.3257    6.4946   33.1600 C.3     1  UNL1        0.0557
      2 C          -0.2593    5.6742   33.8230 C.ar    1  UNL1        0.0995
      3 N           0.2544    5.8589   35.2201 N.ar    1  UNL1       -0.1705
      4 N           1.3118    4.8237   35.4658 N.ar    1  UNL1       -0.2308
      5 C           1.4517    3.9993   34.2205 C.ar    1  UNL1        0.1800
      6 N           2.3378    2.8379   33.8799 N.ar    1  UNL1       -0.2090
      7 C           2.2529    2.2022   32.5240 C.ar    1  UNL1        0.1527
      8 C           1.2819    2.7278   31.5087 C.ar    1  UNL1        0.1332
      9 N           0.3958    3.8891   31.8493 N.ar    1  UNL1       -0.2366
     10 C           0.4807    4.5249   33.2052 C.ar    1  UNL1        0.1319
     11 N           3.1390    1.0407   32.1834 N.pl3   1  UNL1       -0.2919
     12 C           4.5745    0.6904   32.4415 C.3     1  UNL1        0.0939
     13 C           4.3921   -0.6017   31.7017 C.3     1  UNL1        0.0409
     14 C           2.9567   -0.2513   31.4435 C.3     1  UNL1        0.0939
     15 C           5.2782   -1.7630   31.3611 C.3     1  UNL1        0.0193
     16 C           5.6489   -2.7593   32.4194 C.3     1  UNL1        0.0029
     17 C           6.5351   -3.9207   32.0787 C.3     1  UNL1        0.0174
     18 C           7.0505   -4.0858   30.6798 C.3     1  UNL1        0.0722
     19 N           6.6798   -3.0895   29.6215 N.3     1  UNL1       -0.2706
     20 C           5.7937   -1.9282   29.9621 C.3     1  UNL1        0.0722
     21 C           7.1952   -3.2546   28.2225 C.3     1  UNL1        0.1042
     22 C           7.2977   -4.6235   27.6177 C.3     1  UNL1        0.1544
     23 O           6.1943   -5.1419   26.7438 O.3     1  UNL1       -0.3805
     24 H           5.3900   -5.2583   27.2733 H       1  UNL1        0.2105
     25 C           2.0924    4.6445   36.7341 C.3     1  UNL1        0.1298
     26 C           3.0638    5.7000   37.1725 C.3     1  UNL1        0.0313
     27 C           1.9016    3.4096   37.5641 C.ar    1  UNL1        0.0106
     28 C           0.6960    3.2782   38.4469 C.ar    1  UNL1       -0.0007
     29 C           0.5053    2.0434   39.2768 C.ar    1  UNL1        0.0112
     30 C           1.5200    0.9399   39.2239 C.ar    1  UNL1        0.0585
     31 CL          1.3291   -0.2949   40.0538 Cl      1  UNL1       -0.0822
     32 C           2.7255    1.0713   38.3410 C.ar    1  UNL1        0.0225
     33 C           2.9163    2.3062   37.5111 C.ar    1  UNL1        0.0563
     34 CL          4.1218    2.4376   36.6282 Cl      1  UNL1       -0.0825
@<TRIPOS>BOND
     1     1     2    1
     2     2     3   ar
     3     3     4   ar
     4     4    25    1
     5    25    26    1
     6    25    27    1
     7    27    28   ar
     8    28    29   ar
     9    29    30   ar
    10    30    31    1
    11    30    32   ar
    12    32    33   ar
    13    33    34    1
    14     4     5   ar
    15     5     6   ar
    16     6     7   ar
    17     7    11    1
    18    11    12    1
    19    12    13    1
    20    15    13    1
    21    15    16    1
    22    16    17    1
    23    17    18    1
    24    18    19    1
    25    19    21    1
    26    21    22    1
    27    22    23    1
    28    19    20    1
    29    13    14    1
    30     7     8   ar
    31     8     9   ar
    32     9    10   ar
    33    10     2   ar
    34    33    27   ar
    35    10     5   ar
    36    14    11    1
    37    20    15    1
    38    23    24    1
@<TRIPOS>MOLECULE
*****
 34 38 0 0 0
SMALL
GASTEIGER

@<TRIPOS>ATOM
      1 C           9.1825   -7.2866   23.0994 C.3     1  UNL1        0.0557
      2 C           8.4739   -6.0014   22.7895 C.ar    1  UNL1        0.0995
      3 N           8.3644   -5.3584   21.4388 N.ar    1  UNL1       -0.1705
      4 N           7.5731   -4.0932   21.5905 N.ar    1  UNL1       -0.2308
      5 C           7.1935   -3.9542   23.0350 C.ar    1  UNL1        0.1800
      6 N           6.4129   -2.9061   23.7713 N.ar    1  UNL1       -0.2090
      7 C           6.1890   -3.0374   25.2486 C.ar    1  UNL1        0.1527
      8 C           6.7457   -4.2168   25.9897 C.ar    1  UNL1        0.1332
      9 N           7.5263   -5.2649   25.2534 N.ar    1  UNL1       -0.2366
     10 C           7.7502   -5.1336   23.7761 C.ar    1  UNL1        0.1319
     11 N           5.4083   -1.9893   25.9849 N.pl3   1  UNL1       -0.2919
     12 C           4.4691   -0.8902   25.5853 C.3     1  UNL1        0.0939
     13 C           4.3043   -0.5071   27.0262 C.3     1  UNL1        0.0409
     14 C           5.2435   -1.6063   27.4258 C.3     1  UNL1        0.0939
     15 C           3.5237    0.5409   27.7624 C.3     1  UNL1        0.0193
     16 C           4.2416    1.6485   28.4750 C.3     1  UNL1        0.0029
     17 C           3.4609    2.6966   29.2113 C.3     1  UNL1        0.0174
     18 C           1.9623    2.6371   29.2350 C.3     1  UNL1        0.0722
     19 N           1.2443    1.5295   28.5224 N.3     1  UNL1       -0.2706
     20 C           2.0250    0.4814   27.7862 C.3     1  UNL1        0.0722
     21 C          -0.2543    1.4699   28.5461 C.3     1  UNL1        0.1042
     22 C          -0.9541    0.1472   28.4418 C.3     1  UNL1        0.1544
     23 O          -0.8493   -0.8470   29.5600 O.3     1  UNL1       -0.3805
     24 H           0.0678   -1.1540   29.6348 H       1  UNL1        0.2105
     25 C           7.2229   -3.1351   20.4908 C.3     1  UNL1        0.1298
     26 C           8.2727   -2.7016   19.5110 C.3     1  UNL1        0.0313
     27 C           5.8227   -2.6104   20.3708 C.ar    1  UNL1        0.0106
     28 C           5.4830   -1.2506   20.9051 C.ar    1  UNL1       -0.0007
     29 C           4.0829   -0.7260   20.7851 C.ar    1  UNL1        0.0112
     30 C           3.0225   -1.5612   20.1308 C.ar    1  UNL1        0.0585
     31 CL          1.6224   -1.0365   20.0108 Cl      1  UNL1       -0.0822
     32 C           3.3622   -2.9210   19.5964 C.ar    1  UNL1        0.0225
     33 C           4.7624   -3.4455   19.7165 C.ar    1  UNL1        0.0563
     34 CL          5.1022   -4.8054   19.1821 Cl      1  UNL1       -0.0825
@<TRIPOS>BOND
     1     1     2    1
     2     2     3   ar
     3     3     4   ar
     4     4    25    1
     5    25    26    1
     6    25    27    1
     7    27    28   ar
     8    28    29   ar
     9    29    30   ar
    10    30    31    1
    11    30    32   ar
    12    32    33   ar
    13    33    34    1
    14     4     5   ar
    15     5     6   ar
    16     6     7   ar
    17     7    11    1
    18    11    12    1
    19    12    13    1
    20    15    13    1
    21    15    16    1
    22    16    17    1
    23    17    18    1
    24    18    19    1
    25    19    21    1
    26    21    22    1
    27    22    23    1
    28    19    20    1
    29    13    14    1
    30     7     8   ar
    31     8     9   ar
    32     9    10   ar
    33    10     2   ar
    34    33    27   ar
    35    10     5   ar
    36    14    11    1
    37    20    15    1
    38    23    24    1
@<TRIPOS>MOLECULE
*****
 34 38 0 0 0
SMALL
GASTEIGER

@<TRIPOS>ATOM
      1 C           6.9785    0.9221   16.2758 C.3     1  UNL1        0.0557
      2 C           6.3133    0.1393   17.3689 C.ar    1  UNL1        0.0995
      3 N           6.4751   -1.3297   17.6252 N.ar    1  UNL1       -0.1705
      4 N           5.6313   -1.6888   18.8122 N.ar    1  UNL1       -0.2308
      5 C           4.9481   -0.4417   19.2896 C.ar    1  UNL1        0.1800
      6 N           3.9966   -0.1889   20.4212 N.ar    1  UNL1       -0.2090
      7 C           3.4666    1.1937   20.6608 C.ar    1  UNL1        0.1527
      8 C           3.8881    2.3235   19.7688 C.ar    1  UNL1        0.1332
      9 N           4.8396    2.0708   18.6371 N.ar    1  UNL1       -0.2366
     10 C           5.3696    0.6882   18.3975 C.ar    1  UNL1        0.1319
     11 N           2.5150    1.4465   21.7925 N.pl3   1  UNL1       -0.2919
     12 C           2.4740    2.3981   22.9513 C.3     1  UNL1        0.0939
     13 C           1.1694    1.8041   23.3930 C.3     1  UNL1        0.0409
     14 C           1.2104    0.8524   22.2342 C.3     1  UNL1        0.0939
     15 C           0.2179    2.0569   24.5247 C.3     1  UNL1        0.0193
     16 C           0.4146    1.3620   25.8394 C.3     1  UNL1        0.0029
     17 C          -0.5370    1.6149   26.9711 C.3     1  UNL1        0.0174
     18 C          -1.6852    2.5626   26.7880 C.3     1  UNL1        0.0722
     19 N          -1.8818    3.2575   25.4733 N.3     1  UNL1       -0.2706
     20 C          -0.9304    3.0046   24.3416 C.3     1  UNL1        0.0722
     21 C          -3.0300    4.2051   25.2902 C.3     1  UNL1        0.1042
     22 C          -4.3554    3.9095   25.9274 C.3     1  UNL1        0.1544
     23 O          -5.4325    3.2281   25.1365 O.3     1  UNL1       -0.3805
     24 H          -5.7241    3.8111   24.4182 H       1  UNL1        0.2105
     25 C           5.4948   -3.0551   19.4160 C.3     1  UNL1        0.1298
     26 C           4.5271   -4.0404   18.8307 C.3     1  UNL1        0.0313
     27 C           6.3260   -3.4361   20.6051 C.ar    1  UNL1        0.0106
     28 C           7.7842   -3.7430   20.4336 C.ar    1  UNL1       -0.0007
     29 C           8.6153   -4.1240   21.6227 C.ar    1  UNL1        0.0112
     30 C           7.9883   -4.1982   22.9833 C.ar    1  UNL1        0.0585
     31 CL          8.8195   -4.5792   24.1724 Cl      1  UNL1       -0.0822
     32 C           6.5301   -3.8913   23.1549 C.ar    1  UNL1        0.0225
     33 C           5.6990   -3.5103   21.9658 C.ar    1  UNL1        0.0563
     34 CL          4.2407   -3.2034   22.1372 Cl      1  UNL1       -0.0825
@<TRIPOS>BOND
     1     1     2    1
     2     2     3   ar
     3     3     4   ar
     4     4    25    1
     5    25    26    1
     6    25    27    1
     7    27    28   ar
     8    28    29   ar
     9    29    30   ar
    10    30    31    1
    11    30    32   ar
    12    32    33   ar
    13    33    34    1
    14     4     5   ar
    15     5     6   ar
    16     6     7   ar
    17     7    11    1
    18    11    12    1
    19    12    13    1
    20    15    13    1
    21    15    16    1
    22    16    17    1
    23    17    18    1
    24    18    19    1
    25    19    21    1
    26    21    22    1
    27    22    23    1
    28    19    20    1
    29    13    14    1
    30     7     8   ar
    31     8     9   ar
    32     9    10   ar
    33    10     2   ar
    34    33    27   ar
    35    10     5   ar
    36    14    11    1
    37    20    15    1
    38    23    24    1
@<TRIPOS>MOLECULE
*****
 34 38 0 0 0
SMALL
GASTEIGER

@<TRIPOS>ATOM
      1 C          -1.3920    4.6620   16.1181 C.3     1  UNL1        0.0557
      2 C          -2.0897    4.2893   17.3926 C.ar    1  UNL1        0.0995
      3 N          -3.5724    4.2928   17.6195 N.ar    1  UNL1       -0.1705
      4 N          -3.8262    3.8535   19.0311 N.ar    1  UNL1       -0.2308
      5 C          -2.5004    3.5785   19.6765 C.ar    1  UNL1        0.1800
      6 N          -2.1318    3.1175   21.0555 N.ar    1  UNL1       -0.2090
      7 C          -0.6899    2.9260   21.4218 C.ar    1  UNL1        0.1527
      8 C           0.3834    3.1954   20.4091 C.ar    1  UNL1        0.1332
      9 N           0.0148    3.6563   19.0301 N.ar    1  UNL1       -0.2366
     10 C          -1.4271    3.8478   18.6638 C.ar    1  UNL1        0.1319
     11 N          -0.3212    2.4651   22.8008 N.pl3   1  UNL1       -0.2919
     12 C           0.5816    1.4051   23.3588 C.3     1  UNL1        0.0939
     13 C           0.2003    1.8132   24.7510 C.3     1  UNL1        0.0409
     14 C          -0.7025    2.8732   24.1930 C.3     1  UNL1        0.0939
     15 C           0.5690    1.3523   26.1299 C.3     1  UNL1        0.0193
     16 C          -0.4834    1.2537   27.1942 C.3     1  UNL1        0.0029
     17 C          -0.1146    0.7927   28.5732 C.3     1  UNL1        0.0174
     18 C           1.3065    0.4303   28.8879 C.3     1  UNL1        0.0722
     19 N           2.3589    0.5289   27.8236 N.3     1  UNL1       -0.2706
     20 C           1.9902    0.9899   26.4446 C.3     1  UNL1        0.0722
     21 C           3.7800    0.1666   28.1382 C.3     1  UNL1        0.1042
     22 C           4.3752   -1.0909   27.5774 C.3     1  UNL1        0.1544
     23 O           3.4811   -2.2076   27.1262 O.3     1  UNL1       -0.3805
     24 H           3.0135   -2.5767   27.8917 H       1  UNL1        0.2105
     25 C          -5.1700    3.7137   19.6829 C.3     1  UNL1        0.1298
     26 C          -6.3338    3.1873   18.8966 C.3     1  UNL1        0.0313
     27 C          -5.3499    4.1002   21.1211 C.ar    1  UNL1        0.0106
     28 C          -5.2052    3.0673   22.1991 C.ar    1  UNL1       -0.0007
     29 C          -5.3851    3.4539   23.6371 C.ar    1  UNL1        0.0112
     30 C          -5.7096    4.8734   23.9973 C.ar    1  UNL1        0.0585
     31 CL         -5.8895    5.2599   25.4354 Cl      1  UNL1       -0.0822
     32 C          -5.8543    5.9063   22.9193 C.ar    1  UNL1        0.0225
     33 C          -5.6744    5.5197   21.4812 C.ar    1  UNL1        0.0563
     34 CL         -5.8190    6.5526   20.4031 Cl      1  UNL1       -0.0825
@<TRIPOS>BOND
     1     1     2    1
     2     2     3   ar
     3     3     4   ar
     4     4    25    1
     5    25    26    1
     6    25    27    1
     7    27    28   ar
     8    28    29   ar
     9    29    30   ar
    10    30    31    1
    11    30    32   ar
    12    32    33   ar
    13    33    34    1
    14     4     5   ar
    15     5     6   ar
    16     6     7   ar
    17     7    11    1
    18    11    12    1
    19    12    13    1
    20    15    13    1
    21    15    16    1
    22    16    17    1
    23    17    18    1
    24    18    19    1
    25    19    21    1
    26    21    22    1
    27    22    23    1
    28    19    20    1
    29    13    14    1
    30     7     8   ar
    31     8     9   ar
    32     9    10   ar
    33    10     2   ar
    34    33    27   ar
    35    10     5   ar
    36    14    11    1
    37    20    15    1
    38    23    24    1
@<TRIPOS>MOLECULE
*****
 34 38 0 0 0
SMALL
GASTEIGER

@<TRIPOS>ATOM
      1 C           4.8200   -4.4200   18.6514 C.3     1  UNL1        0.0557
      2 C           5.2761   -3.9309   19.9940 C.ar    1  UNL1        0.0995
      3 N           6.5062   -4.3808   20.7250 N.ar    1  UNL1       -0.1705
      4 N           6.5725   -3.6339   22.0242 N.ar    1  UNL1       -0.2308
      5 C           5.3834   -2.7224   22.0961 C.ar    1  UNL1        0.1800
      6 N           4.9266   -1.7491   23.1420 N.ar    1  UNL1       -0.2090
      7 C           3.6687   -0.9592   22.9332 C.ar    1  UNL1        0.1527
      8 C           2.8674   -1.1428   21.6784 C.ar    1  UNL1        0.1332
      9 N           3.3242   -2.1161   20.6325 N.ar    1  UNL1       -0.2366
     10 C           4.5821   -2.9059   20.8414 C.ar    1  UNL1        0.1319
     11 N           3.2119    0.0142   23.9791 N.pl3   1  UNL1       -0.2919
     12 C           1.9398    0.7618   24.2489 C.3     1  UNL1        0.0939
     13 C           2.5659    1.3908   25.4582 C.3     1  UNL1        0.0409
     14 C           3.8380    0.6432   25.1884 C.3     1  UNL1        0.0939
     15 C           2.1091    2.3642   26.5040 C.3     1  UNL1        0.0193
     16 C           2.1879    3.8389   26.2416 C.3     1  UNL1        0.0029
     17 C           1.7311    4.8123   27.2875 C.3     1  UNL1        0.0174
     18 C           1.1954    4.3109   28.5958 C.3     1  UNL1        0.0722
     19 N           1.1166    2.8362   28.8582 N.3     1  UNL1       -0.2706
     20 C           1.5734    1.8628   27.8124 C.3     1  UNL1        0.0722
     21 C           0.5809    2.3348   30.1665 C.3     1  UNL1        0.1042
     22 C           1.4587    2.3271   31.3829 C.3     1  UNL1        0.1544
     23 O           1.0255    1.5907   32.6157 O.3     1  UNL1       -0.3805
     24 H           0.2374    2.0172   32.9870 H       1  UNL1        0.2105
     25 C           7.6404   -3.7739   23.0682 C.3     1  UNL1        0.1298
     26 C           8.7181   -2.7369   23.1825 C.3     1  UNL1        0.0313
     27 C           7.6307   -4.9511   23.9979 C.ar    1  UNL1        0.0106
     28 C           8.2326   -6.2547   23.5638 C.ar    1  UNL1       -0.0007
     29 C           8.2228   -7.4317   24.4935 C.ar    1  UNL1        0.0112
     30 C           7.6112   -7.3053   25.8573 C.ar    1  UNL1        0.0585
     31 CL          7.6014   -8.4824   26.7869 Cl      1  UNL1       -0.0822
     32 C           7.0093   -6.0017   26.2914 C.ar    1  UNL1        0.0225
     33 C           7.0191   -4.8247   25.3617 C.ar    1  UNL1        0.0563
     34 CL          6.4172   -3.5210   25.7957 Cl      1  UNL1       -0.0825
@<TRIPOS>BOND
     1     1     2    1
     2     2     3   ar
     3     3     4   ar
     4     4    25    1
     5    25    26    1
     6    25    27    1
     7    27    28   ar
     8    28    29   ar
     9    29    30   ar
    10    30    31    1
    11    30    32   ar
    12    32    33   ar
    13    33    34    1
    14     4     5   ar
    15     5     6   ar
    16     6     7   ar
    17     7    11    1
    18    11    12    1
    19    12    13    1
    20    15    13    1
    21    15    16    1
    22    16    17    1
    23    17    18    1
    24    18    19    1
    25    19    21    1
    26    21    22    1
    27    22    23    1
    28    19    20    1
    29    13    14    1
    30     7     8   ar
    31     8     9   ar
    32     9    10   ar
    33    10     2   ar
    34    33    27   ar
    35    10     5   ar
    36    14    11    1
    37    20    15    1
    38    23    24    1
