@<TRIPOS>MOLECULE
*****
 23 26 0 0 0
SMALL
GASTEIGER

@<TRIPOS>ATOM
      1 N          -8.7984  -17.4884   23.0598 N.pl3   1  UNL1       -0.3025
      2 C         -13.0196  -17.6763   21.5115 C.ar    1  UNL1        0.0001
      3 C         -12.7579  -17.7493   22.9867 C.ar    1  UNL1        0.0013
      4 C         -11.3508  -17.6866   23.5028 C.ar    1  UNL1        0.0145
      5 C         -10.2055  -17.5511   22.5437 C.ar    1  UNL1        0.0481
      6 C         -10.4672  -17.4781   21.0685 C.ar    1  UNL1        0.0145
      7 C         -11.8742  -17.5408   20.5524 C.ar    1  UNL1        0.0013
      8 C          -8.2483  -16.1947   23.5827 C.3     1  UNL1        0.1045
      9 C          -8.3876  -15.4224   24.8611 C.3     1  UNL1        0.0900
     10 N          -7.4703  -14.3650   24.3223 N.3     1  UNL1       -0.2946
     11 C          -7.3310  -15.1372   23.0439 C.3     1  UNL1        0.0900
     12 H          -6.5999  -14.2633   24.8444 H       1  UNL1        0.1233
     13 C          -7.9416  -18.7196   23.0529 C.3     1  UNL1        0.1177
     14 C          -6.7540  -18.8017   22.1402 C.ar    1  UNL1       -0.0024
     15 C          -6.9418  -19.1596   20.6956 C.ar    1  UNL1       -0.0026
     16 C          -5.7543  -19.2417   19.7829 C.ar    1  UNL1       -0.0003
     17 C          -4.3790  -18.9661   20.3147 C.ar    1  UNL1       -0.0000
     18 C          -3.1916  -19.0482   19.4019 C.ar    1  UNL1       -0.0000
     19 C          -1.8164  -18.7725   19.9337 C.ar    1  UNL1       -0.0000
     20 C          -1.6287  -18.4147   21.3783 C.ar    1  UNL1       -0.0000
     21 C          -2.8161  -18.3325   22.2910 C.ar    1  UNL1       -0.0000
     22 C          -4.1913  -18.6082   21.7592 C.ar    1  UNL1       -0.0003
     23 C          -5.3789  -18.5260   22.6720 C.ar    1  UNL1       -0.0026
@<TRIPOS>BOND
     1     2     3   ar
     2     3     4   ar
     3     4     5   ar
     4     5     1    1
     5     1    13    1
     6    13    14    1
     7    14    15   ar
     8    15    16   ar
     9    16    17   ar
    10    17    18   ar
    11    18    19   ar
    12    19    20   ar
    13    20    21   ar
    14    21    22   ar
    15    22    23   ar
    16     1     8    1
    17     8     9    1
    18     9    10    1
    19    10    11    1
    20     5     6   ar
    21     6     7   ar
    22     7     2   ar
    23    23    14   ar
    24    11     8    1
    25    22    17   ar
    26    10    12    1
@<TRIPOS>MOLECULE
*****
 23 26 0 0 0
SMALL
GASTEIGER

@<TRIPOS>ATOM
      1 N          -9.9404  -18.0589   22.6815 N.pl3   1  UNL1       -0.3025
      2 C          -8.4271  -16.0750   26.4265 C.ar    1  UNL1        0.0001
      3 C          -9.1108  -17.4077   26.5075 C.ar    1  UNL1        0.0013
      4 C          -9.6153  -18.0690   25.2592 C.ar    1  UNL1        0.0145
      5 C          -9.4360  -17.3976   23.9299 C.ar    1  UNL1        0.0481
      6 C          -8.7523  -16.0649   23.8488 C.ar    1  UNL1        0.0145
      7 C          -8.2479  -15.4037   25.0971 C.ar    1  UNL1        0.0013
      8 C         -11.0380  -17.4186   21.8846 C.3     1  UNL1        0.1045
      9 C         -11.5446  -17.5516   20.4790 C.3     1  UNL1        0.0900
     10 N         -12.5904  -16.5130   20.7576 N.3     1  UNL1       -0.2946
     11 C         -12.0838  -16.3799   22.1632 C.3     1  UNL1        0.0900
     12 H         -13.5480  -16.8579   20.6910 H       1  UNL1        0.1233
     13 C          -9.3471  -19.3605   22.2301 C.3     1  UNL1        0.1177
     14 C          -7.9976  -19.3827   21.5754 C.ar    1  UNL1       -0.0024
     15 C          -7.8899  -19.4785   20.0823 C.ar    1  UNL1       -0.0026
     16 C          -6.5406  -19.5006   19.4276 C.ar    1  UNL1       -0.0003
     17 C          -5.2988  -19.4270   20.2660 C.ar    1  UNL1       -0.0000
     18 C          -3.9495  -19.4492   19.6113 C.ar    1  UNL1       -0.0000
     19 C          -2.7078  -19.3756   20.4497 C.ar    1  UNL1       -0.0000
     20 C          -2.8156  -19.2798   21.9427 C.ar    1  UNL1       -0.0000
     21 C          -4.1649  -19.2576   22.5974 C.ar    1  UNL1       -0.0000
     22 C          -5.4066  -19.3312   21.7591 C.ar    1  UNL1       -0.0003
     23 C          -6.7560  -19.3091   22.4138 C.ar    1  UNL1       -0.0026
@<TRIPOS>BOND
     1     2     3   ar
     2     3     4   ar
     3     4     5   ar
     4     5     1    1
     5     1    13    1
     6    13    14    1
     7    14    15   ar
     8    15    16   ar
     9    16    17   ar
    10    17    18   ar
    11    18    19   ar
    12    19    20   ar
    13    20    21   ar
    14    21    22   ar
    15    22    23   ar
    16     1     8    1
    17     8     9    1
    18     9    10    1
    19    10    11    1
    20     5     6   ar
    21     6     7   ar
    22     7     2   ar
    23    23    14   ar
    24    11     8    1
    25    22    17   ar
    26    10    12    1
@<TRIPOS>MOLECULE
*****
 23 26 0 0 0
SMALL
GASTEIGER

@<TRIPOS>ATOM
      1 N          -9.3461  -19.3050   21.9498 N.pl3   1  UNL1       -0.3025
      2 C         -11.0509  -15.5499   20.1488 C.ar    1  UNL1        0.0001
      3 C         -11.5350  -16.8914   19.6840 C.ar    1  UNL1        0.0013
      4 C         -10.9667  -18.1432   20.2843 C.ar    1  UNL1        0.0145
      5 C          -9.9144  -18.0533   21.3494 C.ar    1  UNL1        0.0481
      6 C          -9.4303  -16.7118   21.8142 C.ar    1  UNL1        0.0145
      7 C          -9.9985  -15.4602   21.2140 C.ar    1  UNL1        0.0013
      8 C          -9.6580  -19.6631   23.3726 C.3     1  UNL1        0.1045
      9 C         -10.3844  -18.9919   24.5004 C.3     1  UNL1        0.0900
     10 N         -10.0992  -20.1694   25.3848 N.3     1  UNL1       -0.2946
     11 C          -9.3728  -20.8406   24.2570 C.3     1  UNL1        0.0900
     12 H         -10.9330  -20.6668   25.6976 H       1  UNL1        0.1233
     13 C          -8.4658  -20.1987   21.1272 C.3     1  UNL1        0.1177
     14 C          -6.9776  -20.0120   21.1494 C.ar    1  UNL1       -0.0024
     15 C          -6.1078  -20.8093   20.2231 C.ar    1  UNL1       -0.0026
     16 C          -4.6197  -20.6226   20.2452 C.ar    1  UNL1       -0.0003
     17 C          -4.0012  -19.6387   21.1936 C.ar    1  UNL1       -0.0000
     18 C          -2.5130  -19.4520   21.2157 C.ar    1  UNL1       -0.0000
     19 C          -1.8946  -18.4681   22.1641 C.ar    1  UNL1       -0.0000
     20 C          -2.7643  -17.6708   23.0903 C.ar    1  UNL1       -0.0000
     21 C          -4.2525  -17.8574   23.0682 C.ar    1  UNL1       -0.0000
     22 C          -4.8709  -18.8414   22.1199 C.ar    1  UNL1       -0.0003
     23 C          -6.3591  -19.0281   22.0977 C.ar    1  UNL1       -0.0026
@<TRIPOS>BOND
     1     2     3   ar
     2     3     4   ar
     3     4     5   ar
     4     5     1    1
     5     1    13    1
     6    13    14    1
     7    14    15   ar
     8    15    16   ar
     9    16    17   ar
    10    17    18   ar
    11    18    19   ar
    12    19    20   ar
    13    20    21   ar
    14    21    22   ar
    15    22    23   ar
    16     1     8    1
    17     8     9    1
    18     9    10    1
    19    10    11    1
    20     5     6   ar
    21     6     7   ar
    22     7     2   ar
    23    23    14   ar
    24    11     8    1
    25    22    17   ar
    26    10    12    1
@<TRIPOS>MOLECULE
*****
 23 26 0 0 0
SMALL
GASTEIGER

@<TRIPOS>ATOM
      1 N          -6.3506  -18.5113   22.2868 N.pl3   1  UNL1       -0.3025
      2 C          -2.3185  -19.4611   20.5288 C.ar    1  UNL1        0.0001
      3 C          -2.4347  -19.0755   21.9737 C.ar    1  UNL1        0.0013
      4 C          -3.7788  -18.7589   22.5597 C.ar    1  UNL1        0.0145
      5 C          -5.0066  -18.8279   21.7008 C.ar    1  UNL1        0.0481
      6 C          -4.8903  -19.2134   20.2558 C.ar    1  UNL1        0.0145
      7 C          -3.5464  -19.5300   19.6698 C.ar    1  UNL1        0.0013
      8 C          -6.6163  -17.1521   22.8629 C.3     1  UNL1        0.1045
      9 C          -7.6995  -16.1265   22.7053 C.3     1  UNL1        0.0900
     10 N          -6.9921  -15.2299   23.6778 N.3     1  UNL1       -0.2946
     11 C          -5.9089  -16.2555   23.8354 C.3     1  UNL1        0.0900
     12 H          -7.5179  -15.0449   24.5320 H       1  UNL1        0.1233
     13 C          -7.4290  -19.5540   22.2966 C.3     1  UNL1        0.1177
     14 C          -8.8712  -19.1414   22.2928 C.ar    1  UNL1       -0.0024
     15 C          -9.5145  -18.6750   21.0206 C.ar    1  UNL1       -0.0026
     16 C         -10.9566  -18.2625   21.0168 C.ar    1  UNL1       -0.0003
     17 C         -11.7555  -18.3164   22.2853 C.ar    1  UNL1       -0.0000
     18 C         -13.1976  -17.9038   22.2815 C.ar    1  UNL1       -0.0000
     19 C         -13.9964  -17.9577   23.5499 C.ar    1  UNL1       -0.0000
     20 C         -13.3531  -18.4241   24.8222 C.ar    1  UNL1       -0.0000
     21 C         -11.9109  -18.8366   24.8260 C.ar    1  UNL1       -0.0000
     22 C         -11.1122  -18.7827   23.5575 C.ar    1  UNL1       -0.0003
     23 C          -9.6700  -19.1953   23.5613 C.ar    1  UNL1       -0.0026
@<TRIPOS>BOND
     1     2     3   ar
     2     3     4   ar
     3     4     5   ar
     4     5     1    1
     5     1    13    1
     6    13    14    1
     7    14    15   ar
     8    15    16   ar
     9    16    17   ar
    10    17    18   ar
    11    18    19   ar
    12    19    20   ar
    13    20    21   ar
    14    21    22   ar
    15    22    23   ar
    16     1     8    1
    17     8     9    1
    18     9    10    1
    19    10    11    1
    20     5     6   ar
    21     6     7   ar
    22     7     2   ar
    23    23    14   ar
    24    11     8    1
    25    22    17   ar
    26    10    12    1
@<TRIPOS>MOLECULE
*****
 23 26 0 0 0
SMALL
GASTEIGER

@<TRIPOS>ATOM
      1 N          -9.0072  -19.1862   22.0750 N.pl3   1  UNL1       -0.3025
      2 C         -11.2650  -15.9340   19.9358 C.ar    1  UNL1        0.0001
      3 C         -10.3457  -15.5879   21.0694 C.ar    1  UNL1        0.0013
      4 C          -9.5931  -16.6720   21.7824 C.ar    1  UNL1        0.0145
      5 C          -9.7598  -18.1021   21.3619 C.ar    1  UNL1        0.0481
      6 C         -10.6792  -18.4482   20.2284 C.ar    1  UNL1        0.0145
      7 C         -11.4318  -17.3642   19.5153 C.ar    1  UNL1        0.0013
      8 C          -9.4053  -19.5862   23.4647 C.3     1  UNL1        0.1045
      9 C          -9.4465  -20.8781   24.2258 C.3     1  UNL1        0.0900
     10 N          -9.9683  -20.1520   25.4302 N.3     1  UNL1       -0.2946
     11 C          -9.9271  -18.8601   24.6691 C.3     1  UNL1        0.0900
     12 H          -9.3441  -20.1804   26.2364 H       1  UNL1        0.1233
     13 C          -7.8565  -19.8702   21.3982 C.3     1  UNL1        0.1177
     14 C          -6.4722  -19.3049   21.5183 C.ar    1  UNL1       -0.0024
     15 C          -6.0795  -18.5371   22.7456 C.ar    1  UNL1       -0.0026
     16 C          -4.6953  -17.9718   22.8657 C.ar    1  UNL1       -0.0003
     17 C          -3.7037  -18.1745   21.7585 C.ar    1  UNL1       -0.0000
     18 C          -2.3195  -17.6092   21.8786 C.ar    1  UNL1       -0.0000
     19 C          -1.3280  -17.8119   20.7715 C.ar    1  UNL1       -0.0000
     20 C          -1.7207  -18.5797   19.5442 C.ar    1  UNL1       -0.0000
     21 C          -3.1049  -19.1450   19.4241 C.ar    1  UNL1       -0.0000
     22 C          -4.0964  -18.9423   20.5312 C.ar    1  UNL1       -0.0003
     23 C          -5.4807  -19.5076   20.4112 C.ar    1  UNL1       -0.0026
@<TRIPOS>BOND
     1     2     3   ar
     2     3     4   ar
     3     4     5   ar
     4     5     1    1
     5     1    13    1
     6    13    14    1
     7    14    15   ar
     8    15    16   ar
     9    16    17   ar
    10    17    18   ar
    11    18    19   ar
    12    19    20   ar
    13    20    21   ar
    14    21    22   ar
    15    22    23   ar
    16     1     8    1
    17     8     9    1
    18     9    10    1
    19    10    11    1
    20     5     6   ar
    21     6     7   ar
    22     7     2   ar
    23    23    14   ar
    24    11     8    1
    25    22    17   ar
    26    10    12    1
@<TRIPOS>MOLECULE
*****
 23 26 0 0 0
SMALL
GASTEIGER

@<TRIPOS>ATOM
      1 N          -7.7988  -17.8220   22.5556 N.pl3   1  UNL1       -0.3025
      2 C         -11.2430  -18.1458   19.6774 C.ar    1  UNL1        0.0001
      3 C         -10.2022  -19.2249   19.7260 C.ar    1  UNL1        0.0013
      4 C          -9.0541  -19.1169   20.6854 C.ar    1  UNL1        0.0145
      5 C          -8.9469  -17.9299   21.5962 C.ar    1  UNL1        0.0481
      6 C          -9.9876  -16.8508   21.5476 C.ar    1  UNL1        0.0145
      7 C         -11.1356  -16.9587   20.5882 C.ar    1  UNL1        0.0013
      8 C          -7.6979  -16.6409   23.4746 C.3     1  UNL1        0.1045
      9 C          -6.9231  -15.3565   23.4699 C.3     1  UNL1        0.0900
     10 N          -7.5552  -14.9704   24.7743 N.3     1  UNL1       -0.2946
     11 C          -8.3300  -16.2548   24.7790 C.3     1  UNL1        0.0900
     12 H          -8.1364  -14.1337   24.7239 H       1  UNL1        0.1233
     13 C          -6.7517  -18.8953   22.5959 C.3     1  UNL1        0.1177
     14 C          -5.3351  -18.5755   22.2202 C.ar    1  UNL1       -0.0024
     15 C          -4.3674  -18.1124   23.2686 C.ar    1  UNL1       -0.0026
     16 C          -2.9509  -17.7926   22.8930 C.ar    1  UNL1       -0.0003
     17 C          -2.5019  -17.9360   21.4689 C.ar    1  UNL1       -0.0000
     18 C          -1.0854  -17.6162   21.0933 C.ar    1  UNL1       -0.0000
     19 C          -0.6365  -17.7596   19.6692 C.ar    1  UNL1       -0.0000
     20 C          -1.6042  -18.2227   18.6208 C.ar    1  UNL1       -0.0000
     21 C          -3.0207  -18.5425   18.9964 C.ar    1  UNL1       -0.0000
     22 C          -3.4696  -18.3991   20.4205 C.ar    1  UNL1       -0.0003
     23 C          -4.8862  -18.7189   20.7962 C.ar    1  UNL1       -0.0026
@<TRIPOS>BOND
     1     2     3   ar
     2     3     4   ar
     3     4     5   ar
     4     5     1    1
     5     1    13    1
     6    13    14    1
     7    14    15   ar
     8    15    16   ar
     9    16    17   ar
    10    17    18   ar
    11    18    19   ar
    12    19    20   ar
    13    20    21   ar
    14    21    22   ar
    15    22    23   ar
    16     1     8    1
    17     8     9    1
    18     9    10    1
    19    10    11    1
    20     5     6   ar
    21     6     7   ar
    22     7     2   ar
    23    23    14   ar
    24    11     8    1
    25    22    17   ar
    26    10    12    1
@<TRIPOS>MOLECULE
*****
 23 26 0 0 0
SMALL
GASTEIGER

@<TRIPOS>ATOM
      1 N          -5.8360  -19.1593   21.1946 N.pl3   1  UNL1       -0.3025
      2 C          -1.4499  -18.6787   20.3100 C.ar    1  UNL1        0.0001
      3 C          -1.9106  -18.9024   21.7199 C.ar    1  UNL1        0.0013
      4 C          -3.3726  -19.0625   22.0147 C.ar    1  UNL1        0.0145
      5 C          -4.3739  -18.9991   20.8997 C.ar    1  UNL1        0.0481
      6 C          -3.9133  -18.7755   19.4898 C.ar    1  UNL1        0.0145
      7 C          -2.4514  -18.6153   19.1949 C.ar    1  UNL1        0.0013
      8 C          -6.7150  -19.9135   20.2415 C.3     1  UNL1        0.1045
      9 C          -7.9094  -19.5697   19.4017 C.3     1  UNL1        0.0900
     10 N          -7.9583  -20.9802   18.8937 N.3     1  UNL1       -0.2946
     11 C          -6.7639  -21.3240   19.7335 C.3     1  UNL1        0.0900
     12 H          -7.8003  -21.0669   17.8897 H       1  UNL1        0.1233
     13 C          -6.4189  -18.5652   22.4425 C.3     1  UNL1        0.1177
     14 C          -7.9038  -18.5736   22.6544 C.ar    1  UNL1       -0.0024
     15 C          -8.5855  -19.8196   23.1369 C.ar    1  UNL1       -0.0026
     16 C         -10.0704  -19.8281   23.3488 C.ar    1  UNL1       -0.0003
     17 C         -10.8737  -18.5905   23.0782 C.ar    1  UNL1       -0.0000
     18 C         -12.3586  -18.5990   23.2901 C.ar    1  UNL1       -0.0000
     19 C         -13.1619  -17.3614   23.0194 C.ar    1  UNL1       -0.0000
     20 C         -12.4802  -16.1154   22.5369 C.ar    1  UNL1       -0.0000
     21 C         -10.9953  -16.1070   22.3250 C.ar    1  UNL1       -0.0000
     22 C         -10.1921  -17.3445   22.5956 C.ar    1  UNL1       -0.0003
     23 C          -8.7071  -17.3361   22.3838 C.ar    1  UNL1       -0.0026
@<TRIPOS>BOND
     1     2     3   ar
     2     3     4   ar
     3     4     5   ar
     4     5     1    1
     5     1    13    1
     6    13    14    1
     7    14    15   ar
     8    15    16   ar
     9    16    17   ar
    10    17    18   ar
    11    18    19   ar
    12    19    20   ar
    13    20    21   ar
    14    21    22   ar
    15    22    23   ar
    16     1     8    1
    17     8     9    1
    18     9    10    1
    19    10    11    1
    20     5     6   ar
    21     6     7   ar
    22     7     2   ar
    23    23    14   ar
    24    11     8    1
    25    22    17   ar
    26    10    12    1
@<TRIPOS>MOLECULE
*****
 23 26 0 0 0
SMALL
GASTEIGER

@<TRIPOS>ATOM
      1 N         -12.4704   -6.2670   17.9567 N.pl3   1  UNL1       -0.3025
      2 C         -13.6920   -2.9568   20.7497 C.ar    1  UNL1        0.0001
      3 C         -14.2439   -4.3389   20.9378 C.ar    1  UNL1        0.0013
      4 C         -13.8367   -5.4423   20.0068 C.ar    1  UNL1        0.0145
      5 C         -12.8776   -5.1636   18.8877 C.ar    1  UNL1        0.0481
      6 C         -12.3257   -3.7816   18.6996 C.ar    1  UNL1        0.0145
      7 C         -12.7329   -2.6782   19.6305 C.ar    1  UNL1        0.0013
      8 C         -11.1356   -6.9316   18.1197 C.3     1  UNL1        0.1045
      9 C          -9.9251   -6.6854   18.9707 C.3     1  UNL1        0.0900
     10 N          -9.2478   -7.8713   18.3502 N.3     1  UNL1       -0.2946
     11 C         -10.4583   -8.1174   17.4992 C.3     1  UNL1        0.0900
     12 H          -9.0407   -8.6235   19.0073 H       1  UNL1        0.1233
     13 C         -13.3981   -6.7059   16.8627 C.3     1  UNL1        0.1177
     14 C         -14.5501   -7.6142   17.1756 C.ar    1  UNL1       -0.0024
     15 C         -14.3820   -8.7226   18.1721 C.ar    1  UNL1       -0.0026
     16 C         -15.5340   -9.6309   18.4850 C.ar    1  UNL1       -0.0003
     17 C         -16.8541   -9.4308   17.8014 C.ar    1  UNL1       -0.0000
     18 C         -18.0061  -10.3390   18.1143 C.ar    1  UNL1       -0.0000
     19 C         -19.3261  -10.1389   17.4307 C.ar    1  UNL1       -0.0000
     20 C         -19.4942   -9.0304   16.4341 C.ar    1  UNL1       -0.0000
     21 C         -18.3422   -8.1221   16.1212 C.ar    1  UNL1       -0.0000
     22 C         -17.0222   -8.3223   16.8048 C.ar    1  UNL1       -0.0003
     23 C         -15.8701   -7.4140   16.4919 C.ar    1  UNL1       -0.0026
@<TRIPOS>BOND
     1     2     3   ar
     2     3     4   ar
     3     4     5   ar
     4     5     1    1
     5     1    13    1
     6    13    14    1
     7    14    15   ar
     8    15    16   ar
     9    16    17   ar
    10    17    18   ar
    11    18    19   ar
    12    19    20   ar
    13    20    21   ar
    14    21    22   ar
    15    22    23   ar
    16     1     8    1
    17     8     9    1
    18     9    10    1
    19    10    11    1
    20     5     6   ar
    21     6     7   ar
    22     7     2   ar
    23    23    14   ar
    24    11     8    1
    25    22    17   ar
    26    10    12    1
@<TRIPOS>MOLECULE
*****
 23 26 0 0 0
SMALL
GASTEIGER

@<TRIPOS>ATOM
      1 N         -11.4784   -5.2985   17.5122 N.pl3   1  UNL1       -0.3025
      2 C         -10.8017   -0.8497   17.5439 C.ar    1  UNL1        0.0001
      3 C         -11.4576   -1.5170   18.7164 C.ar    1  UNL1        0.0013
      4 C         -11.6831   -2.9999   18.7058 C.ar    1  UNL1        0.0145
      5 C         -11.2528   -3.8156   17.5228 C.ar    1  UNL1        0.0481
      6 C         -10.5969   -3.1484   16.3504 C.ar    1  UNL1        0.0145
      7 C         -10.3713   -1.6655   16.3609 C.ar    1  UNL1        0.0013
      8 C         -10.5226   -6.2076   18.2264 C.3     1  UNL1        0.1045
      9 C         -10.1979   -7.6705   18.1574 C.3     1  UNL1        0.0900
     10 N          -9.1710   -7.4934   19.2363 N.3     1  UNL1       -0.2946
     11 C          -9.4957   -6.0305   19.3053 C.3     1  UNL1        0.0900
     12 H          -8.2161   -7.6944   18.9394 H       1  UNL1        0.1233
     13 C         -12.6597   -5.8723   16.7875 C.3     1  UNL1        0.1177
     14 C         -13.7906   -6.4823   17.5615 C.ar    1  UNL1       -0.0024
     15 C         -14.5562   -5.6533   18.5497 C.ar    1  UNL1       -0.0026
     16 C         -15.6870   -6.2633   19.3237 C.ar    1  UNL1       -0.0003
     17 C         -16.0523   -7.7023   19.1095 C.ar    1  UNL1       -0.0000
     18 C         -17.1831   -8.3123   19.8835 C.ar    1  UNL1       -0.0000
     19 C         -17.5483   -9.7513   19.6693 C.ar    1  UNL1       -0.0000
     20 C         -16.7827  -10.5803   18.6811 C.ar    1  UNL1       -0.0000
     21 C         -15.6519   -9.9703   17.9071 C.ar    1  UNL1       -0.0000
     22 C         -15.2867   -8.5313   18.1213 C.ar    1  UNL1       -0.0003
     23 C         -14.1558   -7.9213   17.3473 C.ar    1  UNL1       -0.0026
@<TRIPOS>BOND
     1     2     3   ar
     2     3     4   ar
     3     4     5   ar
     4     5     1    1
     5     1    13    1
     6    13    14    1
     7    14    15   ar
     8    15    16   ar
     9    16    17   ar
    10    17    18   ar
    11    18    19   ar
    12    19    20   ar
    13    20    21   ar
    14    21    22   ar
    15    22    23   ar
    16     1     8    1
    17     8     9    1
    18     9    10    1
    19    10    11    1
    20     5     6   ar
    21     6     7   ar
    22     7     2   ar
    23    23    14   ar
    24    11     8    1
    25    22    17   ar
    26    10    12    1
