@<TRIPOS>MOLECULE
*****
 38 41 0 0 0
SMALL
GASTEIGER

@<TRIPOS>ATOM
      1 N          -8.4534  -19.4290   20.1919 N.ar    1  UNL1       -0.3263
      2 C          -7.3197  -20.2520   19.6559 C.ar    1  UNL1        0.0408
      3 C          -7.4016  -21.2373   18.5279 C.3     1  UNL1        0.0501
      4 C          -6.0895  -19.9165   20.4459 C.ar    1  UNL1        0.0520
      5 C          -6.4630  -18.8863   21.4702 C.ar    1  UNL1        0.0202
      6 C          -5.6615  -18.1836   22.5256 C.ar    1  UNL1        0.0047
      7 C          -6.3211  -17.1797   23.4239 C.ar    1  UNL1        0.0373
      8 C          -7.7821  -16.8784   23.2669 C.ar    1  UNL1        0.1482
      9 C          -8.5836  -17.5811   22.2116 C.ar    1  UNL1        0.0543
     10 C          -7.9240  -18.5850   21.3132 C.ar    1  UNL1        0.0630
     11 C          -4.7253  -20.5075   20.2467 C.2     1  UNL1        0.1967
     12 O          -4.5665  -21.9903   20.0857 O.2     1  UNL1       -0.2865
     13 C          -3.5198  -19.6156   20.2085 C.ar    1  UNL1        0.0390
     14 C          -3.2888  -18.7169   19.0300 C.ar    1  UNL1        0.0040
     15 C          -2.0834  -17.8250   18.9917 C.ar    1  UNL1        0.0115
     16 C          -1.1090  -17.8319   20.1320 C.ar    1  UNL1        0.0577
     17 CL          0.0965  -16.9400   20.0938 Cl      1  UNL1       -0.0822
     18 C          -1.3399  -18.7306   21.3106 C.ar    1  UNL1        0.0115
     19 C          -2.5453  -19.6225   21.3489 C.ar    1  UNL1        0.0040
     20 C          -9.8683  -19.4470   19.6940 C.3     1  UNL1        0.1325
     21 C         -12.8162  -17.5350   21.5390 C.ar    1  UNL1        0.1387
     22 C         -12.7197  -16.1813   20.9001 C.ar    1  UNL1        0.0369
     23 C         -11.6728  -15.9162   19.8591 C.ar    1  UNL1        0.0029
     24 C         -10.7223  -17.0048   19.4571 C.ar    1  UNL1       -0.0022
     25 C         -10.8187  -18.3585   20.0960 C.ar    1  UNL1        0.0034
     26 C         -11.8657  -18.6236   21.1370 C.ar    1  UNL1        0.0345
     27 O         -13.8631  -17.8001   22.5800 O.3     1  UNL1       -0.4736
     28 C         -13.4568  -18.1959   23.9686 C.3     1  UNL1        0.2018
     29 C         -14.5007  -18.5811   24.9744 C.2     1  UNL1        0.0900
     30 O         -15.8850  -18.9372   24.5197 O.co2   1  UNL1       -0.5455
     31 O         -14.1603  -18.6103   26.4350 O.co2   1  UNL1       -0.5455
     32 C         -11.2702  -19.5086   24.4642 C.3     1  UNL1        0.0042
     33 C         -12.0065  -18.2066   24.3513 C.3     1  UNL1        0.0495
     34 O          -8.4416  -15.8744   24.1653 O.3     1  UNL1       -0.4044
     35 C          -8.2361  -15.9469   25.6494 C.3     1  UNL1        0.5753
     36 F          -8.0307  -16.0194   27.1335 F       1  UNL1       -0.1328
     37 F          -9.1803  -17.1101   25.7233 F       1  UNL1       -0.1328
     38 F          -7.2920  -14.7837   25.5755 F       1  UNL1       -0.1328
@<TRIPOS>UNITY_ATOM_ATTR
30 1
charge -1
@<TRIPOS>BOND
     1    32    33    1
     2    28    33    1
     3    28    27    1
     4    27    21    1
     5    21    22   ar
     6    22    23   ar
     7    23    24   ar
     8    24    25   ar
     9    25    20    1
    10    20     1    1
    11     1     2   ar
    12     2     3    1
    13     2     4   ar
    14     4    11    1
    15    11    12    2
    16    11    13    1
    17    13    14   ar
    18    14    15   ar
    19    15    16   ar
    20    16    17    1
    21    16    18   ar
    22    18    19   ar
    23     4     5   ar
    24     5     6   ar
    25     6     7   ar
    26     7     8   ar
    27     8    34    1
    28    34    35    1
    29    35    36    1
    30    35    37    1
    31    35    38    1
    32     8     9   ar
    33     9    10   ar
    34    25    26   ar
    35    28    29    1
    36    29    30   ar
    37    29    31   ar
    38    26    21   ar
    39    10     1   ar
    40    19    13   ar
    41    10     5   ar
@<TRIPOS>MOLECULE
*****
 38 41 0 0 0
SMALL
GASTEIGER

@<TRIPOS>ATOM
      1 N          -7.9405  -18.9491   20.6848 N.ar    1  UNL1       -0.3263
      2 C          -9.4140  -19.0193   20.4130 C.ar    1  UNL1        0.0408
      3 C         -10.0864  -19.9276   19.4267 C.3     1  UNL1        0.0501
      4 C         -10.0970  -18.0216   21.3008 C.ar    1  UNL1        0.0520
      5 C          -9.0457  -17.3349   22.1212 C.ar    1  UNL1        0.0202
      6 C          -9.1298  -16.2617   23.1658 C.ar    1  UNL1        0.0047
      7 C          -7.8811  -15.7617   23.8296 C.ar    1  UNL1        0.0373
      8 C          -6.5482  -16.3350   23.4488 C.ar    1  UNL1        0.1482
      9 C          -6.4641  -17.4082   22.4043 C.ar    1  UNL1        0.0543
     10 C          -7.7128  -17.9081   21.7405 C.ar    1  UNL1        0.0630
     11 C         -11.5724  -17.7571   21.3581 C.2     1  UNL1        0.1967
     12 O         -12.2914  -17.2507   20.1431 O.2     1  UNL1       -0.2865
     13 C         -12.3289  -17.9990   22.6307 C.ar    1  UNL1        0.0390
     14 C         -13.7687  -17.5920   22.7362 C.ar    1  UNL1        0.0040
     15 C         -14.5252  -17.8339   24.0087 C.ar    1  UNL1        0.0115
     16 C         -13.8417  -18.4828   25.1757 C.ar    1  UNL1        0.0577
     17 CL        -14.5982  -18.7247   26.4482 Cl      1  UNL1       -0.0822
     18 C         -12.4019  -18.8897   25.0702 C.ar    1  UNL1        0.0115
     19 C         -11.6454  -18.6479   23.7977 C.ar    1  UNL1        0.0040
     20 C          -6.8807  -19.7750   20.0179 C.3     1  UNL1        0.1325
     21 C          -3.0388  -18.7891   20.1526 C.ar    1  UNL1        0.1387
     22 C          -2.6081  -19.4973   21.4028 C.ar    1  UNL1        0.0369
     23 C          -3.6016  -20.2980   22.1914 C.ar    1  UNL1        0.0029
     24 C          -5.0258  -20.3906   21.7297 C.ar    1  UNL1       -0.0022
     25 C          -5.4565  -19.6824   20.4795 C.ar    1  UNL1        0.0034
     26 C          -4.4630  -18.8817   19.6909 C.ar    1  UNL1        0.0345
     27 O          -2.0453  -17.9884   19.3641 O.3     1  UNL1       -0.4736
     28 C          -0.9278  -17.2770   20.0678 C.3     1  UNL1        0.2018
     29 C           0.4703  -17.8146   19.9898 C.2     1  UNL1        0.0900
     30 O           0.7035  -19.2438   19.5989 O.co2   1  UNL1       -0.5455
     31 O           1.6353  -16.9229   20.3027 O.co2   1  UNL1       -0.5455
     32 C          -2.2176  -16.0484   21.9591 C.3     1  UNL1        0.0042
     33 C          -1.2085  -16.0279   20.8495 C.3     1  UNL1        0.0495
     34 O          -5.2995  -15.8349   24.1127 O.3     1  UNL1       -0.4044
     35 C          -4.6922  -16.6068   25.2465 C.3     1  UNL1        0.5753
     36 F          -4.0850  -17.3786   26.3804 F       1  UNL1       -0.1328
     37 F          -5.4261  -15.7421   26.2282 F       1  UNL1       -0.1328
     38 F          -3.9584  -17.4715   24.2648 F       1  UNL1       -0.1328
@<TRIPOS>UNITY_ATOM_ATTR
30 1
charge -1
@<TRIPOS>BOND
     1    32    33    1
     2    28    33    1
     3    28    27    1
     4    27    21    1
     5    21    22   ar
     6    22    23   ar
     7    23    24   ar
     8    24    25   ar
     9    25    20    1
    10    20     1    1
    11     1     2   ar
    12     2     3    1
    13     2     4   ar
    14     4    11    1
    15    11    12    2
    16    11    13    1
    17    13    14   ar
    18    14    15   ar
    19    15    16   ar
    20    16    17    1
    21    16    18   ar
    22    18    19   ar
    23     4     5   ar
    24     5     6   ar
    25     6     7   ar
    26     7     8   ar
    27     8    34    1
    28    34    35    1
    29    35    36    1
    30    35    37    1
    31    35    38    1
    32     8     9   ar
    33     9    10   ar
    34    25    26   ar
    35    28    29    1
    36    29    30   ar
    37    29    31   ar
    38    26    21   ar
    39    10     1   ar
    40    19    13   ar
    41    10     5   ar
@<TRIPOS>MOLECULE
*****
 38 41 0 0 0
SMALL
GASTEIGER

@<TRIPOS>ATOM
      1 N           1.4196    2.4249   23.3092 N.ar    1  UNL1       -0.3263
      2 C           0.7586    3.5242   22.5316 C.ar    1  UNL1        0.0408
      3 C           1.2125    4.0635   21.2076 C.3     1  UNL1        0.0501
      4 C          -0.4359    3.9894   23.3105 C.ar    1  UNL1        0.0520
      5 C          -0.5132    3.1776   24.5695 C.ar    1  UNL1        0.0202
      6 C          -1.4796    3.1940   25.7165 C.ar    1  UNL1        0.0047
      7 C          -1.2993    2.2435   26.8628 C.ar    1  UNL1        0.0373
      8 C          -0.1525    1.2765   26.8620 C.ar    1  UNL1        0.1482
      9 C           0.8139    1.2602   25.7150 C.ar    1  UNL1        0.0543
     10 C           0.6336    2.2107   24.5687 C.ar    1  UNL1        0.0630
     11 C          -1.3863    5.0757   22.9021 C.2     1  UNL1        0.1967
     12 O          -0.8577    6.4099   22.4660 O.2     1  UNL1       -0.2865
     13 C          -2.8655    4.8277   22.9299 C.ar    1  UNL1        0.0390
     14 C          -3.4514    3.6968   22.1375 C.ar    1  UNL1        0.0040
     15 C          -4.9304    3.4488   22.1652 C.ar    1  UNL1        0.0115
     16 C          -5.8236    4.3316   22.9855 C.ar    1  UNL1        0.0577
     17 CL         -7.3027    4.0837   23.0133 Cl      1  UNL1       -0.0822
     18 C          -5.2377    5.4625   23.7779 C.ar    1  UNL1        0.0115
     19 C          -3.7587    5.7105   23.7502 C.ar    1  UNL1        0.0040
     20 C           2.6505    1.6720   22.8994 C.3     1  UNL1        0.1325
     21 C           3.6414   -1.3940   20.5826 C.ar    1  UNL1        0.1387
     22 C           2.3689   -1.5910   19.8133 C.ar    1  UNL1        0.0369
     23 C           1.1902   -0.7003   20.0727 C.ar    1  UNL1        0.0029
     24 C           1.2841    0.3873   21.1014 C.ar    1  UNL1       -0.0022
     25 C           2.5566    0.5843   21.8707 C.ar    1  UNL1        0.0034
     26 C           3.7353   -0.3064   21.6113 C.ar    1  UNL1        0.0345
     27 O           4.8201   -2.2848   20.3232 O.3     1  UNL1       -0.4736
     28 C           4.9822   -2.9438   18.9855 C.3     1  UNL1        0.2018
     29 C           5.5509   -2.1710   17.8326 C.2     1  UNL1        0.0900
     30 O           7.0061   -2.2961   17.4909 O.co2   1  UNL1       -0.5455
     31 O           4.6646   -1.2730   17.0214 O.co2   1  UNL1       -0.5455
     32 C           3.6619   -5.0301   19.7942 C.3     1  UNL1        0.0042
     33 C           4.5754   -4.3757   18.8007 C.3     1  UNL1        0.0495
     34 O           0.0278    0.3260   28.0083 O.3     1  UNL1       -0.4044
     35 C          -1.0581    0.1701   29.0313 C.3     1  UNL1        0.5753
     36 F          -2.1440    0.0144   30.0544 F       1  UNL1       -0.1328
     37 F          -0.4782    1.3067   29.8199 F       1  UNL1       -0.1328
     38 F          -1.6380   -0.9664   28.2427 F       1  UNL1       -0.1328
@<TRIPOS>UNITY_ATOM_ATTR
30 1
charge -1
@<TRIPOS>BOND
     1    32    33    1
     2    28    33    1
     3    28    27    1
     4    27    21    1
     5    21    22   ar
     6    22    23   ar
     7    23    24   ar
     8    24    25   ar
     9    25    20    1
    10    20     1    1
    11     1     2   ar
    12     2     3    1
    13     2     4   ar
    14     4    11    1
    15    11    12    2
    16    11    13    1
    17    13    14   ar
    18    14    15   ar
    19    15    16   ar
    20    16    17    1
    21    16    18   ar
    22    18    19   ar
    23     4     5   ar
    24     5     6   ar
    25     6     7   ar
    26     7     8   ar
    27     8    34    1
    28    34    35    1
    29    35    36    1
    30    35    37    1
    31    35    38    1
    32     8     9   ar
    33     9    10   ar
    34    25    26   ar
    35    28    29    1
    36    29    30   ar
    37    29    31   ar
    38    26    21   ar
    39    10     1   ar
    40    19    13   ar
    41    10     5   ar
@<TRIPOS>MOLECULE
*****
 38 41 0 0 0
SMALL
GASTEIGER

@<TRIPOS>ATOM
      1 N           5.1842   -1.8294   32.2067 N.ar    1  UNL1       -0.3263
      2 C           6.4350   -2.3012   31.5264 C.ar    1  UNL1        0.0408
      3 C           7.6147   -2.9420   32.1956 C.3     1  UNL1        0.0501
      4 C           6.2991   -2.0197   30.0593 C.ar    1  UNL1        0.0520
      5 C           4.9643   -1.3739   29.8329 C.ar    1  UNL1        0.0202
      6 C           4.2872   -0.8778   28.5898 C.ar    1  UNL1        0.0047
      7 C           2.9211   -0.2641   28.6738 C.ar    1  UNL1        0.0373
      8 C           2.2321   -0.1465   30.0010 C.ar    1  UNL1        0.1482
      9 C           2.9092   -0.6426   31.2441 C.ar    1  UNL1        0.0543
     10 C           4.2752   -1.2563   31.1601 C.ar    1  UNL1        0.0630
     11 C           7.3189   -2.3296   29.0039 C.2     1  UNL1        0.1967
     12 O           8.3751   -1.3209   28.6623 O.2     1  UNL1       -0.2865
     13 C           7.2825   -3.6484   28.2899 C.ar    1  UNL1        0.0390
     14 C           7.6324   -4.9087   29.0242 C.ar    1  UNL1        0.0040
     15 C           7.5960   -6.2274   28.3103 C.ar    1  UNL1        0.0115
     16 C           7.2096   -6.2857   26.8621 C.ar    1  UNL1        0.0577
     17 CL          7.1731   -7.6044   26.1481 Cl      1  UNL1       -0.0822
     18 C           6.8597   -5.0254   26.1278 C.ar    1  UNL1        0.0115
     19 C           6.8961   -3.7067   26.8417 C.ar    1  UNL1        0.0040
     20 C           4.8934   -1.9155   33.6757 C.3     1  UNL1        0.1325
     21 C           4.8986    0.5978   36.7470 C.ar    1  UNL1        0.1387
     22 C           6.0774    1.4602   36.4056 C.ar    1  UNL1        0.0369
     23 C           6.8616    1.1974   35.1542 C.ar    1  UNL1        0.0029
     24 C           6.4669    0.0722   34.2442 C.ar    1  UNL1       -0.0022
     25 C           5.2880   -0.7903   34.5857 C.ar    1  UNL1        0.0034
     26 C           4.5039   -0.5275   35.8371 C.ar    1  UNL1        0.0345
     27 O           4.1144    0.8606   37.9984 O.3     1  UNL1       -0.4736
     28 C           2.8824    1.7146   37.9461 C.3     1  UNL1        0.2018
     29 C           2.7090    2.7142   36.8413 C.2     1  UNL1        0.0900
     30 O           2.1811    2.2743   35.5079 O.co2   1  UNL1       -0.5455
     31 O           3.0637    4.1537   37.0697 O.co2   1  UNL1       -0.5455
     32 C           1.2387    0.2193   39.2924 C.3     1  UNL1        0.0042
     33 C           1.8236    1.5689   38.9986 C.3     1  UNL1        0.0495
     34 O           0.8660    0.4673   30.0850 O.3     1  UNL1       -0.4044
     35 C           0.0381    0.6274   28.8444 C.3     1  UNL1        0.5753
     36 F          -0.7897    0.7876   27.6038 F       1  UNL1       -0.1328
     37 F           0.5137    2.0436   28.7099 F       1  UNL1       -0.1328
     38 F          -0.4375   -0.7887   28.9790 F       1  UNL1       -0.1328
@<TRIPOS>UNITY_ATOM_ATTR
30 1
charge -1
@<TRIPOS>BOND
     1    32    33    1
     2    28    33    1
     3    28    27    1
     4    27    21    1
     5    21    22   ar
     6    22    23   ar
     7    23    24   ar
     8    24    25   ar
     9    25    20    1
    10    20     1    1
    11     1     2   ar
    12     2     3    1
    13     2     4   ar
    14     4    11    1
    15    11    12    2
    16    11    13    1
    17    13    14   ar
    18    14    15   ar
    19    15    16   ar
    20    16    17    1
    21    16    18   ar
    22    18    19   ar
    23     4     5   ar
    24     5     6   ar
    25     6     7   ar
    26     7     8   ar
    27     8    34    1
    28    34    35    1
    29    35    36    1
    30    35    37    1
    31    35    38    1
    32     8     9   ar
    33     9    10   ar
    34    25    26   ar
    35    28    29    1
    36    29    30   ar
    37    29    31   ar
    38    26    21   ar
    39    10     1   ar
    40    19    13   ar
    41    10     5   ar
@<TRIPOS>MOLECULE
*****
 38 41 0 0 0
SMALL
GASTEIGER

@<TRIPOS>ATOM
      1 N           1.9715    0.2092   21.9035 N.ar    1  UNL1       -0.3263
      2 C           1.3876    1.3262   22.7168 C.ar    1  UNL1        0.0408
      3 C           0.4154    2.3584   22.2275 C.3     1  UNL1        0.0501
      4 C           1.9465    1.2297   24.1054 C.ar    1  UNL1        0.0520
      5 C           2.8759    0.0531   24.1504 C.ar    1  UNL1        0.0202
      6 C           3.7101   -0.5254   25.2546 C.ar    1  UNL1        0.0047
      7 C           4.5597   -1.7346   24.9980 C.ar    1  UNL1        0.0373
      8 C           4.5751   -2.3653   23.6371 C.ar    1  UNL1        0.1482
      9 C           3.7409   -1.7868   22.5328 C.ar    1  UNL1        0.0543
     10 C           2.8913   -0.5775   22.7895 C.ar    1  UNL1        0.0630
     11 C           1.6314    2.1484   25.2485 C.2     1  UNL1        0.1967
     12 O           2.2005    3.5360   25.2744 O.2     1  UNL1       -0.2865
     13 C           0.7471    1.6796   26.3658 C.ar    1  UNL1        0.0390
     14 C           1.2995    0.7825   27.4336 C.ar    1  UNL1        0.0040
     15 C           0.4153    0.3136   28.5508 C.ar    1  UNL1        0.0115
     16 C          -1.0214    0.7419   28.6003 C.ar    1  UNL1        0.0577
     17 CL         -1.9057    0.2731   29.7176 Cl      1  UNL1       -0.0822
     18 C          -1.5738    1.6390   27.5326 C.ar    1  UNL1        0.0115
     19 C          -0.6896    2.1078   26.4154 C.ar    1  UNL1        0.0040
     20 C           1.6858   -0.0716   20.4580 C.3     1  UNL1        0.1325
     21 C           4.5853   -1.3670   18.0780 C.ar    1  UNL1        0.1387
     22 C           5.0424   -0.0786   17.4609 C.ar    1  UNL1        0.0369
     23 C           4.3806    1.2123   17.8428 C.ar    1  UNL1        0.0029
     24 C           3.2617    1.2146   18.8418 C.ar    1  UNL1       -0.0022
     25 C           2.8046   -0.0740   19.4590 C.ar    1  UNL1        0.0034
     26 C           3.4664   -1.3647   19.0771 C.ar    1  UNL1        0.0345
     27 O           5.2471   -2.6578   17.6961 O.3     1  UNL1       -0.4736
     28 C           5.4866   -3.7138   18.7341 C.3     1  UNL1        0.2018
     29 C           6.5566   -3.5208   19.7675 C.2     1  UNL1        0.0900
     30 O           6.9641   -4.6649   20.6477 O.co2   1  UNL1       -0.5455
     31 O           7.2190   -2.1837   19.9206 O.co2   1  UNL1       -0.5455
     32 C           3.4459   -5.0555   19.6203 C.3     1  UNL1        0.0042
     33 C           4.6560   -4.9628   18.7389 C.3     1  UNL1        0.0495
     34 O           5.4248   -3.5746   23.3805 O.3     1  UNL1       -0.4044
     35 C           6.8018   -3.6622   23.9688 C.3     1  UNL1        0.5753
     36 F           8.1789   -3.7498   24.5570 F       1  UNL1       -0.1328
     37 F           7.2569   -2.5518   23.0688 F       1  UNL1       -0.1328
     38 F           6.3467   -4.7726   24.8687 F       1  UNL1       -0.1328
@<TRIPOS>UNITY_ATOM_ATTR
30 1
charge -1
@<TRIPOS>BOND
     1    32    33    1
     2    28    33    1
     3    28    27    1
     4    27    21    1
     5    21    22   ar
     6    22    23   ar
     7    23    24   ar
     8    24    25   ar
     9    25    20    1
    10    20     1    1
    11     1     2   ar
    12     2     3    1
    13     2     4   ar
    14     4    11    1
    15    11    12    2
    16    11    13    1
    17    13    14   ar
    18    14    15   ar
    19    15    16   ar
    20    16    17    1
    21    16    18   ar
    22    18    19   ar
    23     4     5   ar
    24     5     6   ar
    25     6     7   ar
    26     7     8   ar
    27     8    34    1
    28    34    35    1
    29    35    36    1
    30    35    37    1
    31    35    38    1
    32     8     9   ar
    33     9    10   ar
    34    25    26   ar
    35    28    29    1
    36    29    30   ar
    37    29    31   ar
    38    26    21   ar
    39    10     1   ar
    40    19    13   ar
    41    10     5   ar
@<TRIPOS>MOLECULE
*****
 38 41 0 0 0
SMALL
GASTEIGER

@<TRIPOS>ATOM
      1 N           5.9363   -1.1709   25.3033 N.ar    1  UNL1       -0.3263
      2 C           5.2284   -0.1324   26.1221 C.ar    1  UNL1        0.0408
      3 C           5.6157    0.3198   27.4989 C.3     1  UNL1        0.0501
      4 C           4.0651    0.3746   25.3223 C.ar    1  UNL1        0.0520
      5 C           4.0540   -0.3505   24.0092 C.ar    1  UNL1        0.0202
      6 C           3.1403   -0.2645   22.8228 C.ar    1  UNL1        0.0047
      7 C           3.3831   -1.1336   21.6246 C.ar    1  UNL1        0.0373
      8 C           4.5396   -2.0888   21.6129 C.ar    1  UNL1        0.1482
      9 C           5.4533   -2.1748   22.7994 C.ar    1  UNL1        0.0543
     10 C           5.2105   -1.3057   23.9975 C.ar    1  UNL1        0.0630
     11 C           3.0849    1.4228   25.7588 C.2     1  UNL1        0.1967
     12 O           3.2872    2.8533   25.3557 O.2     1  UNL1       -0.2865
     13 C           1.9022    1.0404   26.5986 C.ar    1  UNL1        0.0390
     14 C           0.5175    1.4116   26.1572 C.ar    1  UNL1        0.0040
     15 C          -0.6652    1.0293   26.9968 C.ar    1  UNL1        0.0115
     16 C          -0.4631    0.2756   28.2779 C.ar    1  UNL1        0.0577
     17 CL         -1.6458   -0.1069   29.1176 Cl      1  UNL1       -0.0822
     18 C           0.9215   -0.0957   28.7193 C.ar    1  UNL1        0.0115
     19 C           2.1042    0.2867   27.8796 C.ar    1  UNL1        0.0040
     20 C           7.1559   -1.9396   25.7176 C.3     1  UNL1        0.1325
     21 C           6.8209   -5.6817   26.9958 C.ar    1  UNL1        0.1387
     22 C           6.7598   -5.4701   28.4796 C.ar    1  UNL1        0.0369
     23 C           6.8308   -4.0816   29.0427 C.ar    1  UNL1        0.0029
     24 C           6.9628   -2.9048   28.1220 C.ar    1  UNL1       -0.0022
     25 C           7.0239   -3.1164   26.6382 C.ar    1  UNL1        0.0034
     26 C           6.9529   -4.5049   26.0752 C.ar    1  UNL1        0.0345
     27 O           6.7500   -7.0703   26.4328 O.3     1  UNL1       -0.4736
     28 C           7.9792   -7.9293   26.3982 C.3     1  UNL1        0.2018
     29 C           8.3017   -8.8241   27.5581 C.2     1  UNL1        0.0900
     30 O           9.2209   -8.3446   28.6422 O.co2   1  UNL1       -0.5455
     31 O           7.7052  -10.1983   27.6338 O.co2   1  UNL1       -0.5455
     32 C           8.4067   -7.2912   23.9163 C.3     1  UNL1        0.0042
     33 C           8.8858   -7.8935   25.2038 C.3     1  UNL1        0.0495
     34 O           4.7824   -2.9579   20.4147 O.3     1  UNL1       -0.4044
     35 C           3.8588   -4.1022   20.1187 C.3     1  UNL1        0.5753
     36 F           2.9352   -5.2465   19.8226 F       1  UNL1       -0.1328
     37 F           4.1208   -4.6667   21.4834 F       1  UNL1       -0.1328
     38 F           3.5968   -3.5376   18.7539 F       1  UNL1       -0.1328
@<TRIPOS>UNITY_ATOM_ATTR
30 1
charge -1
@<TRIPOS>BOND
     1    32    33    1
     2    28    33    1
     3    28    27    1
     4    27    21    1
     5    21    22   ar
     6    22    23   ar
     7    23    24   ar
     8    24    25   ar
     9    25    20    1
    10    20     1    1
    11     1     2   ar
    12     2     3    1
    13     2     4   ar
    14     4    11    1
    15    11    12    2
    16    11    13    1
    17    13    14   ar
    18    14    15   ar
    19    15    16   ar
    20    16    17    1
    21    16    18   ar
    22    18    19   ar
    23     4     5   ar
    24     5     6   ar
    25     6     7   ar
    26     7     8   ar
    27     8    34    1
    28    34    35    1
    29    35    36    1
    30    35    37    1
    31    35    38    1
    32     8     9   ar
    33     9    10   ar
    34    25    26   ar
    35    28    29    1
    36    29    30   ar
    37    29    31   ar
    38    26    21   ar
    39    10     1   ar
    40    19    13   ar
    41    10     5   ar
@<TRIPOS>MOLECULE
*****
 38 41 0 0 0
SMALL
GASTEIGER

@<TRIPOS>ATOM
      1 N           4.4175   -1.1297   33.2693 N.ar    1  UNL1       -0.3263
      2 C           4.7099   -0.2109   34.4184 C.ar    1  UNL1        0.0408
      3 C           5.5812   -0.5245   35.5985 C.3     1  UNL1        0.0501
      4 C           3.9781    1.0766   34.1801 C.ar    1  UNL1        0.0520
      5 C           3.2335    0.9536   32.8838 C.ar    1  UNL1        0.0202
      6 C           2.3432    1.9070   32.1433 C.ar    1  UNL1        0.0047
      7 C           1.7245    1.4968   30.8399 C.ar    1  UNL1        0.0373
      8 C           1.9960    0.1332   30.2770 C.ar    1  UNL1        0.1482
      9 C           2.8863   -0.8202   31.0175 C.ar    1  UNL1        0.0543
     10 C           3.5050   -0.4100   32.3209 C.ar    1  UNL1        0.0630
     11 C           3.9891    2.2766   35.0801 C.2     1  UNL1        0.1967
     12 O           4.8311    3.4679   34.7315 O.2     1  UNL1       -0.2865
     13 C           3.1579    2.2852   36.3288 C.ar    1  UNL1        0.0390
     14 C           3.2591    1.1507   37.3049 C.ar    1  UNL1        0.0040
     15 C           2.4281    1.1592   38.5536 C.ar    1  UNL1        0.0115
     16 C           1.4957    2.3023   38.8261 C.ar    1  UNL1        0.0577
     17 CL          0.6646    2.3109   40.0748 Cl      1  UNL1       -0.0822
     18 C           1.3945    3.4367   37.8500 C.ar    1  UNL1        0.0115
     19 C           2.2256    3.4282   36.6014 C.ar    1  UNL1        0.0040
     20 C           4.9450   -2.5235   33.0986 C.3     1  UNL1        0.1325
     21 C           7.9005   -4.3168   31.1497 C.ar    1  UNL1        0.1387
     22 C           8.8966   -3.1993   31.0547 C.ar    1  UNL1        0.0369
     23 C           8.5755   -1.8565   31.6410 C.ar    1  UNL1        0.0029
     24 C           7.2583   -1.6312   32.3223 C.ar    1  UNL1       -0.0022
     25 C           6.2621   -2.7488   32.4173 C.ar    1  UNL1        0.0034
     26 C           6.5833   -4.0915   31.8310 C.ar    1  UNL1        0.0345
     27 O           8.2218   -5.6596   30.5634 O.3     1  UNL1       -0.4736
     28 C           7.6566   -6.0503   29.2300 C.3     1  UNL1        0.2018
     29 C           8.2849   -7.1644   28.4464 C.2     1  UNL1        0.0900
     30 O           9.4933   -7.8714   28.9849 O.co2   1  UNL1       -0.5455
     31 O           7.7049   -7.5715   27.1243 O.co2   1  UNL1       -0.5455
     32 C           6.6525   -4.1117   27.8217 C.3     1  UNL1        0.0042
     33 C           6.4631   -5.3270   28.6801 C.3     1  UNL1        0.0495
     34 O           1.3773   -0.2770   28.9736 O.3     1  UNL1       -0.4044
     35 C           0.0660    0.3135   28.5471 C.3     1  UNL1        0.5753
     36 F          -1.2453    0.9040   28.1206 F       1  UNL1       -0.1328
     37 F          -0.6621   -0.7254   29.3474 F       1  UNL1       -0.1328
     38 F           0.7942    1.3524   27.7468 F       1  UNL1       -0.1328
@<TRIPOS>UNITY_ATOM_ATTR
30 1
charge -1
@<TRIPOS>BOND
     1    32    33    1
     2    28    33    1
     3    28    27    1
     4    27    21    1
     5    21    22   ar
     6    22    23   ar
     7    23    24   ar
     8    24    25   ar
     9    25    20    1
    10    20     1    1
    11     1     2   ar
    12     2     3    1
    13     2     4   ar
    14     4    11    1
    15    11    12    2
    16    11    13    1
    17    13    14   ar
    18    14    15   ar
    19    15    16   ar
    20    16    17    1
    21    16    18   ar
    22    18    19   ar
    23     4     5   ar
    24     5     6   ar
    25     6     7   ar
    26     7     8   ar
    27     8    34    1
    28    34    35    1
    29    35    36    1
    30    35    37    1
    31    35    38    1
    32     8     9   ar
    33     9    10   ar
    34    25    26   ar
    35    28    29    1
    36    29    30   ar
    37    29    31   ar
    38    26    21   ar
    39    10     1   ar
    40    19    13   ar
    41    10     5   ar
@<TRIPOS>MOLECULE
*****
 38 41 0 0 0
SMALL
GASTEIGER

@<TRIPOS>ATOM
      1 N           3.9552    2.1065   32.6112 N.ar    1  UNL1       -0.3263
      2 C           4.6412    0.9050   33.1906 C.ar    1  UNL1        0.0408
      3 C           5.6538    0.9160   34.2972 C.3     1  UNL1        0.0501
      4 C           4.1368   -0.3095   32.4691 C.ar    1  UNL1        0.0520
      5 C           3.1391    0.1415   31.4438 C.ar    1  UNL1        0.0202
      6 C           2.3184   -0.6147   30.4415 C.ar    1  UNL1        0.0047
      7 C           1.3854    0.1224   29.5271 C.ar    1  UNL1        0.0373
      8 C           1.2731    1.6156   29.6150 C.ar    1  UNL1        0.1482
      9 C           2.0939    2.3717   30.6172 C.ar    1  UNL1        0.0543
     10 C           3.0269    1.6347   31.5316 C.ar    1  UNL1        0.0630
     11 C           4.5565   -1.7262   32.7275 C.2     1  UNL1        0.1967
     12 O           3.8894   -2.5203   33.8110 O.2     1  UNL1       -0.2865
     13 C           5.6434   -2.3489   31.9021 C.ar    1  UNL1        0.0390
     14 C           6.2504   -3.6543   32.3233 C.ar    1  UNL1        0.0040
     15 C           7.3372   -4.2770   31.4981 C.ar    1  UNL1        0.0115
     16 C           7.8170   -3.5942   30.2516 C.ar    1  UNL1        0.0577
     17 CL          8.9038   -4.2168   29.4263 Cl      1  UNL1       -0.0822
     18 C           7.2100   -2.2888   29.8305 C.ar    1  UNL1        0.0115
     19 C           6.1232   -1.6661   30.6557 C.ar    1  UNL1        0.0040
     20 C           4.1613    3.5301   33.0368 C.3     1  UNL1        0.1325
     21 C           2.4357    3.5615   36.6104 C.ar    1  UNL1        0.1387
     22 C           2.9927    4.8311   37.1830 C.ar    1  UNL1        0.0369
     23 C           3.9393    5.6670   36.3736 C.ar    1  UNL1        0.0029
     24 C           4.3288    5.2333   34.9915 C.ar    1  UNL1       -0.0022
     25 C           3.7718    3.9637   34.4188 C.ar    1  UNL1        0.0034
     26 C           2.8252    3.1278   35.2283 C.ar    1  UNL1        0.0345
     27 O           1.4891    2.7257   37.4199 O.3     1  UNL1       -0.4736
     28 C           2.0186    1.8114   38.4847 C.3     1  UNL1        0.2018
     29 C           3.4847    1.5004   38.5453 C.2     1  UNL1        0.0900
     30 O           4.3482    2.1563   39.5817 O.co2   1  UNL1       -0.5455
     31 O           4.0873    0.5336   37.5695 O.co2   1  UNL1       -0.5455
     32 C           1.1351   -0.2636   39.7746 C.3     1  UNL1        0.0042
     33 C           1.0818    1.2079   39.4889 C.3     1  UNL1        0.0495
     34 O           0.3400    2.3527   28.7005 O.3     1  UNL1       -0.4044
     35 C          -0.1334    1.7064   27.4324 C.3     1  UNL1        0.5753
     36 F          -0.6068    1.0601   26.1642 F       1  UNL1       -0.1328
     37 F          -1.3991    1.2865   28.1189 F       1  UNL1       -0.1328
     38 F           1.1324    2.1264   26.7458 F       1  UNL1       -0.1328
@<TRIPOS>UNITY_ATOM_ATTR
30 1
charge -1
@<TRIPOS>BOND
     1    32    33    1
     2    28    33    1
     3    28    27    1
     4    27    21    1
     5    21    22   ar
     6    22    23   ar
     7    23    24   ar
     8    24    25   ar
     9    25    20    1
    10    20     1    1
    11     1     2   ar
    12     2     3    1
    13     2     4   ar
    14     4    11    1
    15    11    12    2
    16    11    13    1
    17    13    14   ar
    18    14    15   ar
    19    15    16   ar
    20    16    17    1
    21    16    18   ar
    22    18    19   ar
    23     4     5   ar
    24     5     6   ar
    25     6     7   ar
    26     7     8   ar
    27     8    34    1
    28    34    35    1
    29    35    36    1
    30    35    37    1
    31    35    38    1
    32     8     9   ar
    33     9    10   ar
    34    25    26   ar
    35    28    29    1
    36    29    30   ar
    37    29    31   ar
    38    26    21   ar
    39    10     1   ar
    40    19    13   ar
    41    10     5   ar
@<TRIPOS>MOLECULE
*****
 38 41 0 0 0
SMALL
GASTEIGER

@<TRIPOS>ATOM
      1 N          -7.0802  -16.8338   22.9637 N.ar    1  UNL1       -0.3263
      2 C          -8.5002  -16.3562   23.0374 C.ar    1  UNL1        0.0408
      3 C          -9.0062  -15.2211   23.8773 C.3     1  UNL1        0.0501
      4 C          -9.3255  -17.2131   22.1238 C.ar    1  UNL1        0.0520
      5 C          -8.4155  -18.2203   21.4854 C.ar    1  UNL1        0.0202
      6 C          -8.6711  -19.3206   20.4985 C.ar    1  UNL1        0.0047
      7 C          -7.5392  -20.1864   20.0307 C.ar    1  UNL1        0.0373
      8 C          -6.1515  -19.9520   20.5498 C.ar    1  UNL1        0.1482
      9 C          -5.8958  -18.8517   21.5367 C.ar    1  UNL1        0.0543
     10 C          -7.0278  -17.9859   22.0045 C.ar    1  UNL1        0.0630
     11 C         -10.8015  -17.0853   21.8896 C.2     1  UNL1        0.1967
     12 O         -11.3095  -16.5133   20.5995 O.2     1  UNL1       -0.2865
     13 C         -11.7697  -17.5296   22.9458 C.ar    1  UNL1        0.0390
     14 C         -13.2074  -17.1083   22.8703 C.ar    1  UNL1        0.0040
     15 C         -14.1756  -17.5525   23.9264 C.ar    1  UNL1        0.0115
     16 C         -13.7060  -18.4180   25.0580 C.ar    1  UNL1        0.0577
     17 CL        -14.6741  -18.8622   26.1141 Cl      1  UNL1       -0.0822
     18 C         -12.2684  -18.8392   25.1334 C.ar    1  UNL1        0.0115
     19 C         -11.3002  -18.3950   24.0774 C.ar    1  UNL1        0.0040
     20 C          -5.9168  -16.2601   23.7169 C.3     1  UNL1        0.1325
     21 C          -2.3415  -16.8127   22.0856 C.ar    1  UNL1        0.1387
     22 C          -1.7686  -17.8517   23.0033 C.ar    1  UNL1        0.0369
     23 C          -2.5785  -18.3603   24.1589 C.ar    1  UNL1        0.0029
     24 C          -3.9613  -17.8297   24.3968 C.ar    1  UNL1       -0.0022
     25 C          -4.5342  -16.7906   23.4790 C.ar    1  UNL1        0.0034
     26 C          -3.7242  -16.2821   22.3234 C.ar    1  UNL1        0.0345
     27 O          -1.5315  -16.3042   20.9299 O.3     1  UNL1       -0.4736
     28 C          -1.1486  -17.2330   19.8161 C.3     1  UNL1        0.2018
     29 C          -2.0636  -17.4127   18.6412 C.2     1  UNL1        0.0900
     30 O          -1.4979  -17.7618   17.2966 O.co2   1  UNL1       -0.5455
     31 O          -3.5443  -17.2432   18.8109 O.co2   1  UNL1       -0.5455
     32 C           1.3478  -17.3549   20.5255 C.3     1  UNL1        0.0042
     33 C           0.1495  -17.9822   19.8772 C.3     1  UNL1        0.0495
     34 O          -5.0195  -20.8179   20.0819 O.3     1  UNL1       -0.4044
     35 C          -3.6031  -20.4312   20.3888 C.3     1  UNL1        0.5753
     36 F          -2.1866  -20.0445   20.6956 F       1  UNL1       -0.1328
     37 F          -3.9015  -20.5029   21.8570 F       1  UNL1       -0.1328
     38 F          -3.3046  -20.3595   18.9205 F       1  UNL1       -0.1328
@<TRIPOS>UNITY_ATOM_ATTR
30 1
charge -1
@<TRIPOS>BOND
     1    32    33    1
     2    28    33    1
     3    28    27    1
     4    27    21    1
     5    21    22   ar
     6    22    23   ar
     7    23    24   ar
     8    24    25   ar
     9    25    20    1
    10    20     1    1
    11     1     2   ar
    12     2     3    1
    13     2     4   ar
    14     4    11    1
    15    11    12    2
    16    11    13    1
    17    13    14   ar
    18    14    15   ar
    19    15    16   ar
    20    16    17    1
    21    16    18   ar
    22    18    19   ar
    23     4     5   ar
    24     5     6   ar
    25     6     7   ar
    26     7     8   ar
    27     8    34    1
    28    34    35    1
    29    35    36    1
    30    35    37    1
    31    35    38    1
    32     8     9   ar
    33     9    10   ar
    34    25    26   ar
    35    28    29    1
    36    29    30   ar
    37    29    31   ar
    38    26    21   ar
    39    10     1   ar
    40    19    13   ar
    41    10     5   ar
