@<TRIPOS>MOLECULE
*****
 29 31 0 0 0
SMALL
GASTEIGER

@<TRIPOS>ATOM
      1 N          -6.4681  -17.1630   23.1607 N.3     1  UNL1       -0.2713
      2 C          -6.5642  -18.2658   22.1484 C.3     1  UNL1        0.0749
      3 C          -7.8925  -18.8950   21.8487 C.3     1  UNL1        0.0485
      4 C          -9.1246  -18.4213   22.5611 C.3     1  UNL1        0.1096
      5 O          -9.7206  -19.4884   21.6914 O.3     1  UNL1       -0.3826
      6 C          -9.0285  -17.3185   23.5733 C.3     1  UNL1        0.0485
      7 C          -7.7002  -16.6893   23.8731 C.3     1  UNL1        0.0749
      8 H          -9.0222  -19.8969   21.1564 H       1  UNL1        0.2107
      9 C         -10.5638  -18.3183   22.9715 C.ar    1  UNL1        0.0019
     10 C         -11.5609  -17.6748   22.0541 C.ar    1  UNL1        0.0003
     11 C         -13.0001  -17.5718   22.4645 C.ar    1  UNL1        0.0294
     12 C         -13.4419  -18.1121   23.7922 C.ar    1  UNL1        0.1401
     13 F         -14.8810  -18.0091   24.2026 F       1  UNL1       -0.2042
     14 C         -12.4447  -18.7556   24.7096 C.ar    1  UNL1        0.0294
     15 C         -11.0056  -18.8586   24.2992 C.ar    1  UNL1        0.0003
     16 C          -5.1399  -16.5338   23.4605 C.3     1  UNL1        0.0888
     17 C          -5.0441  -15.0532   23.6814 C.3     1  UNL1        0.0203
     18 C          -3.9074  -17.3851   23.5394 C.3     1  UNL1        0.1469
     19 O          -3.5776  -18.1113   24.8097 O.3     1  UNL1       -0.3787
     20 H          -2.7549  -18.6116   24.6919 H       1  UNL1        0.2108
     21 C          -3.7583  -19.9771   22.0361 C.3     1  UNL1        0.0309
     22 C          -2.9302  -18.8062   21.5963 C.ar    1  UNL1       -0.0205
     23 C          -2.0276  -18.9313   20.4048 C.ar    1  UNL1        0.0321
     24 C          -1.1995  -17.7605   19.9650 C.ar    1  UNL1        0.1333
     25 O          -0.2969  -17.8856   18.7735 O.3     1  UNL1       -0.5055
     26 C          -1.2741  -16.4645   20.7166 C.ar    1  UNL1        0.0364
     27 C          -2.1767  -16.3394   21.9080 C.ar    1  UNL1        0.0009
     28 C          -3.0048  -17.5103   22.3478 C.ar    1  UNL1        0.0018
     29 H          -0.2503  -18.6952   18.3040 H       1  UNL1        0.2922
@<TRIPOS>BOND
     1    21    22    1
     2    22    23   ar
     3    23    24   ar
     4    24    25    1
     5    24    26   ar
     6    26    27   ar
     7    27    28   ar
     8    28    18    1
     9    18    19    1
    10    18    16    1
    11    16    17    1
    12    16     1    1
    13     1     2    1
    14     2     3    1
    15     3     4    1
    16     4     5    1
    17     4     9    1
    18     9    10   ar
    19    10    11   ar
    20    11    12   ar
    21    12    13    1
    22    12    14   ar
    23    14    15   ar
    24     4     6    1
    25     6     7    1
    26    28    22   ar
    27     7     1    1
    28    15     9   ar
    29    25    29    1
    30    19    20    1
    31     5     8    1
@<TRIPOS>MOLECULE
*****
 29 31 0 0 0
SMALL
GASTEIGER

@<TRIPOS>ATOM
      1 N          -7.7058  -19.2495   22.6251 N.3     1  UNL1       -0.2713
      2 C          -7.5944  -20.4112   21.6826 C.3     1  UNL1        0.0749
      3 C          -6.3472  -20.6017   20.8712 C.3     1  UNL1        0.0485
      4 C          -5.2115  -19.6306   21.0023 C.3     1  UNL1        0.1096
      5 O          -4.6363  -20.5680   19.9823 O.3     1  UNL1       -0.3826
      6 C          -5.3230  -18.4690   21.9447 C.3     1  UNL1        0.0485
      7 C          -6.5701  -18.2785   22.7561 C.3     1  UNL1        0.0749
      8 H          -5.2772  -21.2705   19.7910 H       1  UNL1        0.2107
      9 C          -3.8760  -18.9850   20.7791 C.ar    1  UNL1        0.0019
     10 C          -3.4680  -18.5639   19.3985 C.ar    1  UNL1        0.0003
     11 C          -2.1325  -17.9183   19.1753 C.ar    1  UNL1        0.0294
     12 C          -1.2051  -17.6940   20.3328 C.ar    1  UNL1        0.1401
     13 F           0.1304  -17.0485   20.1096 F       1  UNL1       -0.2042
     14 C          -1.6132  -18.1152   21.7134 C.ar    1  UNL1        0.0294
     15 C          -2.9487  -18.7607   21.9366 C.ar    1  UNL1        0.0003
     16 C          -8.9529  -19.0590   23.4365 C.3     1  UNL1        0.0888
     17 C          -9.5878  -20.2322   24.1226 C.3     1  UNL1        0.0203
     18 C          -9.5652  -17.6954   23.5617 C.3     1  UNL1        0.1469
     19 O          -9.3754  -16.9008   24.8197 O.3     1  UNL1       -0.3787
     20 H          -9.8324  -16.0492   24.7363 H       1  UNL1        0.2108
     21 C         -12.5208  -18.1895   23.4198 C.3     1  UNL1        0.0309
     22 C         -11.8450  -17.3734   22.3580 C.ar    1  UNL1       -0.0205
     23 C         -12.6469  -16.8044   21.2253 C.ar    1  UNL1        0.0321
     24 C         -11.9711  -15.9884   20.1636 C.ar    1  UNL1        0.1333
     25 O         -12.7731  -15.4194   19.0308 O.3     1  UNL1       -0.5055
     26 C         -10.4933  -15.7414   20.2345 C.ar    1  UNL1        0.0364
     27 C          -9.6914  -16.3104   21.3672 C.ar    1  UNL1        0.0009
     28 C         -10.3672  -17.1264   22.4290 C.ar    1  UNL1        0.0018
     29 H         -13.6963  -15.5737   18.9865 H       1  UNL1        0.2922
@<TRIPOS>BOND
     1    21    22    1
     2    22    23   ar
     3    23    24   ar
     4    24    25    1
     5    24    26   ar
     6    26    27   ar
     7    27    28   ar
     8    28    18    1
     9    18    19    1
    10    18    16    1
    11    16    17    1
    12    16     1    1
    13     1     2    1
    14     2     3    1
    15     3     4    1
    16     4     5    1
    17     4     9    1
    18     9    10   ar
    19    10    11   ar
    20    11    12   ar
    21    12    13    1
    22    12    14   ar
    23    14    15   ar
    24     4     6    1
    25     6     7    1
    26    28    22   ar
    27     7     1    1
    28    15     9   ar
    29    25    29    1
    30    19    20    1
    31     5     8    1
@<TRIPOS>MOLECULE
*****
 29 31 0 0 0
SMALL
GASTEIGER

@<TRIPOS>ATOM
      1 N          -7.8431  -19.3456   20.4959 N.3     1  UNL1       -0.2713
      2 C          -7.4177  -20.7592   20.2296 C.3     1  UNL1        0.0749
      3 C          -5.9612  -21.0907   20.0919 C.3     1  UNL1        0.0485
      4 C          -4.9303  -20.0087   20.2206 C.3     1  UNL1        0.1096
      5 O          -4.0393  -21.1888   19.9685 O.3     1  UNL1       -0.3826
      6 C          -5.3558  -18.5952   20.4869 C.3     1  UNL1        0.0485
      7 C          -6.8122  -18.2637   20.6246 C.3     1  UNL1        0.0749
      8 H          -4.5812  -21.9862   19.8617 H       1  UNL1        0.2107
      9 C          -3.5899  -19.3366   20.2617 C.ar    1  UNL1        0.0019
     10 C          -3.0414  -18.6813   19.0290 C.ar    1  UNL1        0.0003
     11 C          -1.7011  -18.0091   19.0701 C.ar    1  UNL1        0.0294
     12 C          -0.9093  -17.9923   20.3440 C.ar    1  UNL1        0.1401
     13 F           0.4311  -17.3202   20.3851 F       1  UNL1       -0.2042
     14 C          -1.4578  -18.6476   21.5768 C.ar    1  UNL1        0.0294
     15 C          -2.7981  -19.3198   21.5356 C.ar    1  UNL1        0.0003
     16 C          -9.2995  -19.0141   20.6336 C.3     1  UNL1        0.0888
     17 C         -10.3248  -19.8147   19.8866 C.3     1  UNL1        0.0203
     18 C          -9.7307  -17.8820   21.5182 C.3     1  UNL1        0.1469
     19 O          -9.1244  -16.5211   21.3438 O.3     1  UNL1       -0.3787
     20 H          -9.5107  -15.9099   21.9904 H       1  UNL1        0.2108
     21 C         -12.5356  -16.9004   21.1074 C.3     1  UNL1        0.0309
     22 C         -12.1705  -17.6201   22.3718 C.ar    1  UNL1       -0.0205
     23 C         -13.2078  -17.8489   23.4308 C.ar    1  UNL1        0.0321
     24 C         -12.8427  -18.5686   24.6953 C.ar    1  UNL1        0.1333
     25 O         -13.8801  -18.7974   25.7543 O.3     1  UNL1       -0.5055
     26 C         -11.4403  -19.0593   24.9007 C.ar    1  UNL1        0.0364
     27 C         -10.4030  -18.8305   23.8417 C.ar    1  UNL1        0.0009
     28 C         -10.7681  -18.1109   22.5772 C.ar    1  UNL1        0.0018
     29 H         -14.7562  -18.4908   25.6260 H       1  UNL1        0.2922
@<TRIPOS>BOND
     1    21    22    1
     2    22    23   ar
     3    23    24   ar
     4    24    25    1
     5    24    26   ar
     6    26    27   ar
     7    27    28   ar
     8    28    18    1
     9    18    19    1
    10    18    16    1
    11    16    17    1
    12    16     1    1
    13     1     2    1
    14     2     3    1
    15     3     4    1
    16     4     5    1
    17     4     9    1
    18     9    10   ar
    19    10    11   ar
    20    11    12   ar
    21    12    13    1
    22    12    14   ar
    23    14    15   ar
    24     4     6    1
    25     6     7    1
    26    28    22   ar
    27     7     1    1
    28    15     9   ar
    29    25    29    1
    30    19    20    1
    31     5     8    1
@<TRIPOS>MOLECULE
*****
 29 31 0 0 0
SMALL
GASTEIGER

@<TRIPOS>ATOM
      1 N          -5.8537  -17.1256   23.3216 N.3     1  UNL1       -0.2713
      2 C          -6.2644  -15.9607   24.1728 C.3     1  UNL1        0.0749
      3 C          -7.7120  -15.5821   24.2779 C.3     1  UNL1        0.0485
      4 C          -8.7490  -16.3684   23.5318 C.3     1  UNL1        0.1096
      5 O          -9.6255  -15.3543   24.2051 O.3     1  UNL1       -0.3826
      6 C          -8.3383  -17.5332   22.6807 C.3     1  UNL1        0.0485
      7 C          -6.8907  -17.9118   22.5755 C.3     1  UNL1        0.0749
      8 H          -9.0783  -14.7579   24.7397 H       1  UNL1        0.2107
      9 C         -10.0904  -16.8025   23.0195 C.ar    1  UNL1        0.0019
     10 C         -10.9037  -17.7959   23.7951 C.ar    1  UNL1        0.0003
     11 C         -12.2451  -18.2300   23.2829 C.ar    1  UNL1        0.0294
     12 C         -12.7730  -17.6705   21.9951 C.ar    1  UNL1        0.1401
     13 F         -14.1144  -18.1046   21.4829 F       1  UNL1       -0.2042
     14 C         -11.9597  -16.6771   21.2196 C.ar    1  UNL1        0.0294
     15 C         -10.6183  -16.2430   21.7318 C.ar    1  UNL1        0.0003
     16 C          -4.4061  -17.5042   23.2165 C.3     1  UNL1        0.0888
     17 C          -3.3683  -16.7126   23.9557 C.3     1  UNL1        0.0203
     18 C          -3.9963  -18.6743   22.3722 C.3     1  UNL1        0.1469
     19 O          -4.3669  -20.0666   22.7895 O.3     1  UNL1       -0.3787
     20 H          -4.0278  -20.7004   22.1382 H       1  UNL1        0.2108
     21 C          -5.2654  -19.2154   19.7082 C.3     1  UNL1        0.0309
     22 C          -3.8504  -18.7227   19.7787 C.ar    1  UNL1       -0.0205
     23 C          -3.0699  -18.5005   18.5171 C.ar    1  UNL1        0.0321
     24 C          -1.6549  -18.0078   18.5876 C.ar    1  UNL1        0.1333
     25 O          -0.8744  -17.7857   17.3259 O.3     1  UNL1       -0.5055
     26 C          -1.0203  -17.7373   19.9195 C.ar    1  UNL1        0.0364
     27 C          -1.8008  -17.9595   21.1810 C.ar    1  UNL1        0.0009
     28 C          -3.2158  -18.4522   21.1106 C.ar    1  UNL1        0.0018
     29 H          -1.2708  -17.9547   16.4939 H       1  UNL1        0.2922
@<TRIPOS>BOND
     1    21    22    1
     2    22    23   ar
     3    23    24   ar
     4    24    25    1
     5    24    26   ar
     6    26    27   ar
     7    27    28   ar
     8    28    18    1
     9    18    19    1
    10    18    16    1
    11    16    17    1
    12    16     1    1
    13     1     2    1
    14     2     3    1
    15     3     4    1
    16     4     5    1
    17     4     9    1
    18     9    10   ar
    19    10    11   ar
    20    11    12   ar
    21    12    13    1
    22    12    14   ar
    23    14    15   ar
    24     4     6    1
    25     6     7    1
    26    28    22   ar
    27     7     1    1
    28    15     9   ar
    29    25    29    1
    30    19    20    1
    31     5     8    1
@<TRIPOS>MOLECULE
*****
 29 31 0 0 0
SMALL
GASTEIGER

@<TRIPOS>ATOM
      1 N          -6.6518  -18.2451   22.2164 N.3     1  UNL1       -0.2713
      2 C          -6.6191  -16.9034   22.8865 C.3     1  UNL1        0.0749
      3 C          -7.8754  -16.3235   23.4656 C.3     1  UNL1        0.0485
      4 C          -9.1645  -17.0853   23.3747 C.3     1  UNL1        0.1096
      5 O          -9.6364  -15.8604   24.1008 O.3     1  UNL1       -0.3826
      6 C          -9.1971  -18.4269   22.7046 C.3     1  UNL1        0.0485
      7 C          -7.9408  -19.0068   22.1255 C.3     1  UNL1        0.0749
      8 H          -8.8893  -15.2565   24.2355 H       1  UNL1        0.2107
      9 C         -10.6174  -17.4216   23.5359 C.ar    1  UNL1        0.0019
     10 C         -11.0374  -18.4872   24.5044 C.ar    1  UNL1        0.0003
     11 C         -12.4904  -18.8236   24.6657 C.ar    1  UNL1        0.0294
     12 C         -13.5231  -18.0943   23.8584 C.ar    1  UNL1        0.1401
     13 F         -14.9760  -18.4306   24.0197 F       1  UNL1       -0.2042
     14 C         -13.1030  -17.0287   22.8900 C.ar    1  UNL1        0.0294
     15 C         -11.6501  -16.6923   22.7287 C.ar    1  UNL1        0.0003
     16 C          -5.3955  -18.8250   21.6372 C.3     1  UNL1        0.0888
     17 C          -5.4387  -19.5448   20.3219 C.3     1  UNL1        0.0203
     18 C          -4.0961  -18.6851   22.3734 C.3     1  UNL1        0.1469
     19 O          -4.0307  -18.9811   23.8424 O.3     1  UNL1       -0.3787
     20 H          -3.1248  -18.8422   24.1602 H       1  UNL1        0.2108
     21 C          -3.1930  -15.8282   22.5232 C.3     1  UNL1        0.0309
     22 C          -2.4105  -16.8207   21.7154 C.ar    1  UNL1       -0.0205
     23 C          -1.1765  -16.3848   20.9825 C.ar    1  UNL1        0.0321
     24 C          -0.3941  -17.3774   20.1746 C.ar    1  UNL1        0.1333
     25 O           0.8400  -16.9414   19.4417 O.3     1  UNL1       -0.5055
     26 C          -0.8456  -18.8058   20.0997 C.ar    1  UNL1        0.0364
     27 C          -2.0796  -19.2417   20.8326 C.ar    1  UNL1        0.0009
     28 C          -2.8621  -18.2491   21.6404 C.ar    1  UNL1        0.0018
     29 H           1.1221  -16.0491   19.4885 H       1  UNL1        0.2922
@<TRIPOS>BOND
     1    21    22    1
     2    22    23   ar
     3    23    24   ar
     4    24    25    1
     5    24    26   ar
     6    26    27   ar
     7    27    28   ar
     8    28    18    1
     9    18    19    1
    10    18    16    1
    11    16    17    1
    12    16     1    1
    13     1     2    1
    14     2     3    1
    15     3     4    1
    16     4     5    1
    17     4     9    1
    18     9    10   ar
    19    10    11   ar
    20    11    12   ar
    21    12    13    1
    22    12    14   ar
    23    14    15   ar
    24     4     6    1
    25     6     7    1
    26    28    22   ar
    27     7     1    1
    28    15     9   ar
    29    25    29    1
    30    19    20    1
    31     5     8    1
@<TRIPOS>MOLECULE
*****
 29 31 0 0 0
SMALL
GASTEIGER

@<TRIPOS>ATOM
      1 N          -7.4778  -19.4562   22.2607 N.3     1  UNL1       -0.2713
      2 C          -7.3594  -20.5544   21.2457 C.3     1  UNL1        0.0749
      3 C          -6.0913  -20.7172   20.4613 C.3     1  UNL1        0.0485
      4 C          -4.9415  -19.7818   20.6919 C.3     1  UNL1        0.1096
      5 O          -4.3527  -20.6612   19.6288 O.3     1  UNL1       -0.3826
      6 C          -5.0599  -18.6837   21.7068 C.3     1  UNL1        0.0485
      7 C          -6.3280  -18.5209   22.4911 C.3     1  UNL1        0.0749
      8 H          -5.0009  -21.3353   19.3712 H       1  UNL1        0.2107
      9 C          -3.5872  -19.1518   20.5532 C.ar    1  UNL1        0.0019
     10 C          -2.6978  -19.0140   21.7531 C.ar    1  UNL1        0.0003
     11 C          -1.3435  -18.3840   21.6144 C.ar    1  UNL1        0.0294
     12 C          -0.8788  -17.8920   20.2758 C.ar    1  UNL1        0.1401
     13 F           0.4755  -17.2620   20.1371 F       1  UNL1       -0.2042
     14 C          -1.7682  -18.0299   19.0758 C.ar    1  UNL1        0.0294
     15 C          -3.1225  -18.6598   19.2145 C.ar    1  UNL1        0.0003
     16 C          -8.7459  -19.2934   23.0450 C.3     1  UNL1        0.0888
     17 C          -9.4325  -20.4972   23.6192 C.3     1  UNL1        0.0203
     18 C          -9.3276  -17.9268   23.2553 C.3     1  UNL1        0.1469
     19 O         -10.4112  -17.4251   22.3476 O.3     1  UNL1       -0.3787
     20 H         -10.6728  -16.5315   22.6195 H       1  UNL1        0.2108
     21 C          -7.8417  -15.3940   22.6412 C.3     1  UNL1        0.0309
     22 C          -8.0826  -15.7955   24.0663 C.ar    1  UNL1       -0.0205
     23 C          -7.5806  -14.9306   25.1842 C.ar    1  UNL1        0.0321
     24 C          -7.8214  -15.3322   26.6093 C.ar    1  UNL1        0.1333
     25 O          -7.3193  -14.4672   27.7273 O.3     1  UNL1       -0.5055
     26 C          -8.5643  -16.5986   26.9164 C.ar    1  UNL1        0.0364
     27 C          -9.0663  -17.4634   25.7984 C.ar    1  UNL1        0.0009
     28 C          -8.8255  -17.0619   24.3733 C.ar    1  UNL1        0.0018
     29 H          -6.8553  -13.6762   27.5355 H       1  UNL1        0.2922
@<TRIPOS>BOND
     1    21    22    1
     2    22    23   ar
     3    23    24   ar
     4    24    25    1
     5    24    26   ar
     6    26    27   ar
     7    27    28   ar
     8    28    18    1
     9    18    19    1
    10    18    16    1
    11    16    17    1
    12    16     1    1
    13     1     2    1
    14     2     3    1
    15     3     4    1
    16     4     5    1
    17     4     9    1
    18     9    10   ar
    19    10    11   ar
    20    11    12   ar
    21    12    13    1
    22    12    14   ar
    23    14    15   ar
    24     4     6    1
    25     6     7    1
    26    28    22   ar
    27     7     1    1
    28    15     9   ar
    29    25    29    1
    30    19    20    1
    31     5     8    1
@<TRIPOS>MOLECULE
*****
 29 31 0 0 0
SMALL
GASTEIGER

@<TRIPOS>ATOM
      1 N          -6.7789  -19.8093   20.7693 N.3     1  UNL1       -0.2713
      2 C          -7.5160  -19.7759   19.4633 C.3     1  UNL1        0.0749
      3 C          -8.9755  -19.4310   19.4344 C.3     1  UNL1        0.0485
      4 C          -9.6980  -19.1195   20.7116 C.3     1  UNL1        0.1096
      5 O         -10.8215  -18.9585   19.7309 O.3     1  UNL1       -0.3826
      6 C          -8.9609  -19.1529   22.0175 C.3     1  UNL1        0.0485
      7 C          -7.5013  -19.4978   22.0464 C.3     1  UNL1        0.0749
      8 H         -10.4957  -19.1339   18.8342 H       1  UNL1        0.2107
      9 C         -10.8106  -18.7521   21.6482 C.ar    1  UNL1        0.0019
     10 C         -10.7354  -19.1465   23.0934 C.ar    1  UNL1        0.0003
     11 C         -11.8480  -18.7791   24.0300 C.ar    1  UNL1        0.0294
     12 C         -13.0358  -18.0172   23.5212 C.ar    1  UNL1        0.1401
     13 F         -14.1484  -17.6498   24.4577 F       1  UNL1       -0.2042
     14 C         -13.1110  -17.6228   22.0760 C.ar    1  UNL1        0.0294
     15 C         -11.9983  -17.9902   21.1394 C.ar    1  UNL1        0.0003
     16 C          -5.3194  -20.1542   20.7981 C.3     1  UNL1        0.0888
     17 C          -4.7670  -21.1594   19.8313 C.3     1  UNL1        0.0203
     18 C          -4.4122  -19.4940   21.7937 C.3     1  UNL1        0.1469
     19 O          -4.6775  -19.6408   23.2627 O.3     1  UNL1       -0.3787
     20 H          -4.0026  -19.1560   23.7632 H       1  UNL1        0.2108
     21 C          -3.7671  -16.8740   23.1048 C.3     1  UNL1        0.0309
     22 C          -2.9172  -17.3770   21.9758 C.ar    1  UNL1       -0.0205
     23 C          -1.7449  -16.5700   21.5023 C.ar    1  UNL1        0.0321
     24 C          -0.8950  -17.0730   20.3732 C.ar    1  UNL1        0.1333
     25 O           0.2774  -16.2659   19.8997 O.3     1  UNL1       -0.5055
     26 C          -1.2176  -18.3830   19.7176 C.ar    1  UNL1        0.0364
     27 C          -2.3900  -19.1900   20.1911 C.ar    1  UNL1        0.0009
     28 C          -3.2398  -18.6870   21.3202 C.ar    1  UNL1        0.0018
     29 H           0.4789  -15.4476   20.3093 H       1  UNL1        0.2922
@<TRIPOS>BOND
     1    21    22    1
     2    22    23   ar
     3    23    24   ar
     4    24    25    1
     5    24    26   ar
     6    26    27   ar
     7    27    28   ar
     8    28    18    1
     9    18    19    1
    10    18    16    1
    11    16    17    1
    12    16     1    1
    13     1     2    1
    14     2     3    1
    15     3     4    1
    16     4     5    1
    17     4     9    1
    18     9    10   ar
    19    10    11   ar
    20    11    12   ar
    21    12    13    1
    22    12    14   ar
    23    14    15   ar
    24     4     6    1
    25     6     7    1
    26    28    22   ar
    27     7     1    1
    28    15     9   ar
    29    25    29    1
    30    19    20    1
    31     5     8    1
@<TRIPOS>MOLECULE
*****
 29 31 0 0 0
SMALL
GASTEIGER

@<TRIPOS>ATOM
      1 N          -8.5731  -19.0380   23.1937 N.3     1  UNL1       -0.2713
      2 C          -8.2201  -17.6739   23.7081 C.3     1  UNL1        0.0749
      3 C          -6.8573  -17.1038   23.4479 C.3     1  UNL1        0.0485
      4 C          -5.8475  -17.8977   22.6732 C.3     1  UNL1        0.1096
      5 O          -5.0472  -16.6601   22.9523 O.3     1  UNL1       -0.3826
      6 C          -6.2006  -19.2618   22.1588 C.3     1  UNL1        0.0485
      7 C          -7.5634  -19.8319   22.4190 C.3     1  UNL1        0.0749
      8 H          -5.5859  -16.0349   23.4620 H       1  UNL1        0.2107
      9 C          -4.5598  -18.2619   21.9955 C.ar    1  UNL1        0.0019
     10 C          -4.5819  -18.9320   20.6537 C.ar    1  UNL1        0.0003
     11 C          -3.2942  -19.2961   19.9759 C.ar    1  UNL1        0.0294
     12 C          -1.9845  -18.9901   20.6401 C.ar    1  UNL1        0.1401
     13 F          -0.6968  -19.3542   19.9623 F       1  UNL1       -0.2042
     14 C          -1.9624  -18.3200   21.9819 C.ar    1  UNL1        0.0294
     15 C          -3.2501  -17.9559   22.6596 C.ar    1  UNL1        0.0003
     16 C          -9.9359  -19.6081   23.4539 C.3     1  UNL1        0.0888
     17 C         -10.3360  -19.9886   24.8486 C.3     1  UNL1        0.0203
     18 C         -10.8987  -19.7979   22.3194 C.3     1  UNL1        0.1469
     19 O         -11.4728  -21.1556   22.0420 O.3     1  UNL1       -0.3787
     20 H         -12.0723  -21.1039   21.2812 H       1  UNL1        0.2108
     21 C         -13.0269  -17.8982   23.2479 C.3     1  UNL1        0.0309
     22 C         -12.3514  -17.6800   21.9265 C.ar    1  UNL1       -0.0205
     23 C         -12.7400  -16.5120   21.0693 C.ar    1  UNL1        0.0321
     24 C         -12.0645  -16.2939   19.7479 C.ar    1  UNL1        0.1333
     25 O         -12.4532  -15.1258   18.8907 O.3     1  UNL1       -0.5055
     26 C         -11.0005  -17.2437   19.2836 C.ar    1  UNL1        0.0364
     27 C         -10.6119  -18.4116   20.1408 C.ar    1  UNL1        0.0009
     28 C         -11.2873  -18.6298   21.4622 C.ar    1  UNL1        0.0018
     29 H         -13.1179  -14.5325   19.1807 H       1  UNL1        0.2922
@<TRIPOS>BOND
     1    21    22    1
     2    22    23   ar
     3    23    24   ar
     4    24    25    1
     5    24    26   ar
     6    26    27   ar
     7    27    28   ar
     8    28    18    1
     9    18    19    1
    10    18    16    1
    11    16    17    1
    12    16     1    1
    13     1     2    1
    14     2     3    1
    15     3     4    1
    16     4     5    1
    17     4     9    1
    18     9    10   ar
    19    10    11   ar
    20    11    12   ar
    21    12    13    1
    22    12    14   ar
    23    14    15   ar
    24     4     6    1
    25     6     7    1
    26    28    22   ar
    27     7     1    1
    28    15     9   ar
    29    25    29    1
    30    19    20    1
    31     5     8    1
@<TRIPOS>MOLECULE
*****
 29 31 0 0 0
SMALL
GASTEIGER

@<TRIPOS>ATOM
      1 N          -7.8548  -19.2759   20.6348 N.3     1  UNL1       -0.2713
      2 C          -7.4419  -20.6903   20.3536 C.3     1  UNL1        0.0749
      3 C          -5.9903  -21.0281   20.1836 C.3     1  UNL1        0.0485
      4 C          -4.9517  -19.9514   20.2946 C.3     1  UNL1        0.1096
      5 O          -4.0719  -21.1346   20.0188 O.3     1  UNL1       -0.3826
      6 C          -5.3647  -18.5371   20.5758 C.3     1  UNL1        0.0485
      7 C          -6.8163  -18.1993   20.7458 C.3     1  UNL1        0.0749
      8 H          -4.6198  -21.9290   19.9202 H       1  UNL1        0.2107
      9 C          -3.6076  -19.2857   20.3099 C.ar    1  UNL1        0.0019
     10 C          -2.8324  -19.1905   21.5905 C.ar    1  UNL1        0.0003
     11 C          -1.4883  -18.5248   21.6058 C.ar    1  UNL1        0.0294
     12 C          -0.9194  -17.9544   20.3405 C.ar    1  UNL1        0.1401
     13 F           0.4247  -17.2887   20.3557 F       1  UNL1       -0.2042
     14 C          -1.6946  -18.0496   19.0599 C.ar    1  UNL1        0.0294
     15 C          -3.0388  -18.7153   19.0446 C.ar    1  UNL1        0.0003
     16 C          -9.3064  -18.9381   20.8048 C.3     1  UNL1        0.0888
     17 C         -10.3597  -19.8887   20.3178 C.3     1  UNL1        0.0203
     18 C          -9.7047  -17.6499   21.4619 C.3     1  UNL1        0.1469
     19 O         -10.4162  -16.5929   20.6703 O.3     1  UNL1       -0.3787
     20 H         -10.5995  -15.8302   21.2409 H       1  UNL1        0.2108
     21 C         -11.0331  -19.3214   23.5694 C.3     1  UNL1        0.0309
     22 C         -10.0557  -18.2543   23.9642 C.ar    1  UNL1       -0.0205
     23 C          -9.7424  -18.0229   25.4127 C.ar    1  UNL1        0.0321
     24 C          -8.7649  -16.9559   25.8076 C.ar    1  UNL1        0.1333
     25 O          -8.4517  -16.7245   27.2562 O.3     1  UNL1       -0.5055
     26 C          -8.1007  -16.1201   24.7539 C.ar    1  UNL1        0.0364
     27 C          -8.4140  -16.3515   23.3053 C.ar    1  UNL1        0.0009
     28 C          -9.3914  -17.4186   22.9105 C.ar    1  UNL1        0.0018
     29 H          -8.8666  -17.2466   27.9144 H       1  UNL1        0.2922
@<TRIPOS>BOND
     1    21    22    1
     2    22    23   ar
     3    23    24   ar
     4    24    25    1
     5    24    26   ar
     6    26    27   ar
     7    27    28   ar
     8    28    18    1
     9    18    19    1
    10    18    16    1
    11    16    17    1
    12    16     1    1
    13     1     2    1
    14     2     3    1
    15     3     4    1
    16     4     5    1
    17     4     9    1
    18     9    10   ar
    19    10    11   ar
    20    11    12   ar
    21    12    13    1
    22    12    14   ar
    23    14    15   ar
    24     4     6    1
    25     6     7    1
    26    28    22   ar
    27     7     1    1
    28    15     9   ar
    29    25    29    1
    30    19    20    1
    31     5     8    1
