@<TRIPOS>MOLECULE
*****
 25 27 0 0 0
SMALL
GASTEIGER

@<TRIPOS>ATOM
      1 N          -7.1035  -18.5005   22.4519 N.3     1  UNL1       -0.2700
      2 C          -5.8061  -19.0130   21.9002 C.3     1  UNL1        0.0628
      3 C          -5.7977  -19.8404   20.6492 C.3     1  UNL1        0.0481
      4 C          -4.5004  -20.3528   20.0976 C.3     1  UNL1        0.1435
      5 O          -3.2114  -20.0378   20.7970 O.3     1  UNL1       -0.3537
      6 C          -3.2197  -19.2103   22.0480 C.3     1  UNL1        0.1435
      7 C          -4.5171  -18.6979   22.5996 C.3     1  UNL1        0.0481
      8 C          -7.2273  -17.0640   22.8654 C.3     1  UNL1        0.0748
      9 C          -6.5945  -16.4360   24.0718 C.3     1  UNL1        0.0344
     10 C          -6.9818  -14.9871   24.0972 C.3     1  UNL1        0.0700
     11 N          -7.8540  -14.7196   22.9065 N.3     1  UNL1       -0.2963
     12 C          -8.0057  -16.0031   22.1453 C.3     1  UNL1        0.0847
     13 H          -7.4206  -14.0134   22.3116 H       1  UNL1        0.1233
     14 C          -8.2769  -19.4246   22.5900 C.3     1  UNL1        0.0991
     15 F         -13.0277  -17.6853   23.7752 F       1  UNL1       -0.2042
     16 C         -12.0163  -18.1050   22.7500 C.ar    1  UNL1        0.1437
     17 C         -12.3688  -18.0746   21.2924 C.ar    1  UNL1        0.0296
     18 C         -11.3574  -18.4943   20.2673 C.ar    1  UNL1        0.0020
     19 C          -9.9935  -18.9443   20.6998 C.ar    1  UNL1       -0.0028
     20 C          -9.6409  -18.9746   22.1575 C.ar    1  UNL1       -0.0000
     21 C         -10.6523  -18.5549   23.1826 C.ar    1  UNL1        0.0962
     22 C         -10.2998  -18.5853   24.6403 C.3     1  UNL1        0.4204
     23 F          -9.9472  -18.6156   26.0979 F       1  UNL1       -0.1658
     24 F         -10.6686  -20.0380   24.6992 F       1  UNL1       -0.1658
     25 F          -9.9309  -17.1325   24.5813 F       1  UNL1       -0.1658
@<TRIPOS>BOND
     1    15    16    1
     2    16    17   ar
     3    17    18   ar
     4    18    19   ar
     5    19    20   ar
     6    20    14    1
     7    14     1    1
     8     1     2    1
     9     2     3    1
    10     3     4    1
    11     4     5    1
    12     5     6    1
    13     6     7    1
    14     8     1    1
    15     8     9    1
    16     9    10    1
    17    10    11    1
    18    11    12    1
    19    20    21   ar
    20    21    22    1
    21    22    23    1
    22    22    24    1
    23    22    25    1
    24    21    16   ar
    25     7     2    1
    26    12     8    1
    27    11    13    1
@<TRIPOS>MOLECULE
*****
 25 27 0 0 0
SMALL
GASTEIGER

@<TRIPOS>ATOM
      1 N          -8.2944  -17.6869   22.5519 N.3     1  UNL1       -0.2700
      2 C          -9.4292  -17.5841   21.5764 C.3     1  UNL1        0.0628
      3 C          -9.7557  -18.7422   20.6809 C.3     1  UNL1        0.0481
      4 C         -10.8905  -18.6394   19.7054 C.3     1  UNL1        0.1435
      5 O         -11.6988  -17.3783   19.6254 O.3     1  UNL1       -0.3537
      6 C         -11.3723  -16.2201   20.5209 C.3     1  UNL1        0.1435
      7 C         -10.2375  -16.3230   21.4964 C.3     1  UNL1        0.0481
      8 C          -8.0230  -16.5632   23.5078 C.3     1  UNL1        0.0748
      9 C          -8.4865  -16.4861   24.9323 C.3     1  UNL1        0.0344
     10 C          -7.9904  -15.1946   25.5120 C.3     1  UNL1        0.0700
     11 N          -7.2202  -14.4736   24.4457 N.3     1  UNL1       -0.2963
     12 C          -7.2403  -15.3194   23.2071 C.3     1  UNL1        0.0847
     13 H          -6.2577  -14.3299   24.7512 H       1  UNL1        0.1233
     14 C          -7.4310  -18.9133   22.5715 C.3     1  UNL1        0.0991
     15 F          -3.6327  -20.0676   19.2188 F       1  UNL1       -0.2042
     16 C          -4.0928  -19.4013   20.4815 C.ar    1  UNL1        0.1437
     17 C          -3.1138  -18.6458   21.3305 C.ar    1  UNL1        0.0296
     18 C          -3.5738  -17.9795   22.5931 C.ar    1  UNL1        0.0020
     19 C          -5.0129  -18.0686   23.0068 C.ar    1  UNL1       -0.0028
     20 C          -5.9919  -18.8241   22.1578 C.ar    1  UNL1       -0.0000
     21 C          -5.5318  -19.4904   20.8951 C.ar    1  UNL1        0.0962
     22 C          -6.5108  -20.2459   20.0462 C.3     1  UNL1        0.4204
     23 F          -7.4898  -21.0014   19.1972 F       1  UNL1       -0.1658
     24 F          -6.1078  -21.5245   20.7191 F       1  UNL1       -0.1658
     25 F          -6.9139  -18.9674   19.3732 F       1  UNL1       -0.1658
@<TRIPOS>BOND
     1    15    16    1
     2    16    17   ar
     3    17    18   ar
     4    18    19   ar
     5    19    20   ar
     6    20    14    1
     7    14     1    1
     8     1     2    1
     9     2     3    1
    10     3     4    1
    11     4     5    1
    12     5     6    1
    13     6     7    1
    14     8     1    1
    15     8     9    1
    16     9    10    1
    17    10    11    1
    18    11    12    1
    19    20    21   ar
    20    21    22    1
    21    22    23    1
    22    22    24    1
    23    22    25    1
    24    21    16   ar
    25     7     2    1
    26    12     8    1
    27    11    13    1
@<TRIPOS>MOLECULE
*****
 25 27 0 0 0
SMALL
GASTEIGER

@<TRIPOS>ATOM
      1 N          -7.9996  -18.5425   22.8584 N.3     1  UNL1       -0.2700
      2 C          -6.7912  -19.0050   22.0994 C.3     1  UNL1        0.0628
      3 C          -6.9504  -19.9176   20.9197 C.3     1  UNL1        0.0481
      4 C          -5.7420  -20.3800   20.1608 C.3     1  UNL1        0.1435
      5 O          -4.3745  -19.9298   20.5816 O.3     1  UNL1       -0.3537
      6 C          -4.2152  -19.0172   21.7613 C.3     1  UNL1        0.1435
      7 C          -5.4236  -18.5548   22.5202 C.3     1  UNL1        0.0481
      8 C          -8.0688  -17.1352   23.3728 C.3     1  UNL1        0.0748
      9 C          -8.3545  -16.7266   24.7875 C.3     1  UNL1        0.0344
     10 C          -8.3268  -15.2282   24.8519 C.3     1  UNL1        0.0700
     11 N          -8.0240  -14.7107   23.4770 N.3     1  UNL1       -0.2963
     12 C          -7.8646  -15.8893   22.5629 C.3     1  UNL1        0.0847
     13 H          -7.1614  -14.1667   23.4941 H       1  UNL1        0.1233
     14 C          -9.1386  -19.4873   23.1029 C.3     1  UNL1        0.0991
     15 F         -13.3513  -17.4666   20.8288 F       1  UNL1       -0.2042
     16 C         -12.6471  -17.9526   22.0609 C.ar    1  UNL1        0.1437
     17 C         -13.3451  -17.9143   23.3881 C.ar    1  UNL1        0.0296
     18 C         -12.6410  -18.4003   24.6201 C.ar    1  UNL1        0.0020
     19 C         -11.2389  -18.9246   24.5250 C.ar    1  UNL1       -0.0028
     20 C         -10.5408  -18.9629   23.1979 C.ar    1  UNL1       -0.0000
     21 C         -11.2449  -18.4769   21.9658 C.ar    1  UNL1        0.0962
     22 C         -10.5469  -18.5152   20.6387 C.3     1  UNL1        0.4204
     23 F          -9.8489  -18.5535   19.3116 F       1  UNL1       -0.1658
     24 F         -10.1801  -17.0687   20.7899 F       1  UNL1       -0.1658
     25 F         -10.9137  -19.9618   20.4875 F       1  UNL1       -0.1658
@<TRIPOS>BOND
     1    15    16    1
     2    16    17   ar
     3    17    18   ar
     4    18    19   ar
     5    19    20   ar
     6    20    14    1
     7    14     1    1
     8     1     2    1
     9     2     3    1
    10     3     4    1
    11     4     5    1
    12     5     6    1
    13     6     7    1
    14     8     1    1
    15     8     9    1
    16     9    10    1
    17    10    11    1
    18    11    12    1
    19    20    21   ar
    20    21    22    1
    21    22    23    1
    22    22    24    1
    23    22    25    1
    24    21    16   ar
    25     7     2    1
    26    12     8    1
    27    11    13    1
@<TRIPOS>MOLECULE
*****
 25 27 0 0 0
SMALL
GASTEIGER

@<TRIPOS>ATOM
      1 N          -8.3372  -17.2352   22.1543 N.3     1  UNL1       -0.2700
      2 C          -9.8331  -17.3135   22.2328 C.3     1  UNL1        0.0628
      3 C         -10.6769  -16.3966   21.3978 C.3     1  UNL1        0.0481
      4 C         -12.1728  -16.4749   21.4763 C.3     1  UNL1        0.1435
      5 O         -12.8248  -17.4702   22.3897 O.3     1  UNL1       -0.3537
      6 C         -11.9810  -18.3871   23.2247 C.3     1  UNL1        0.1435
      7 C         -10.4851  -18.3088   23.1462 C.3     1  UNL1        0.0481
      8 C          -7.5556  -18.3777   21.5764 C.3     1  UNL1        0.0748
      9 C          -6.2485  -18.9022   22.0925 C.3     1  UNL1        0.0344
     10 C          -5.8290  -20.0449   21.2161 C.3     1  UNL1        0.0700
     11 N          -6.8769  -20.2266   20.1582 N.3     1  UNL1       -0.2963
     12 C          -7.9439  -19.1962   20.3810 C.3     1  UNL1        0.0847
     13 H          -7.2789  -21.1616   20.2263 H       1  UNL1        0.1233
     14 C          -7.6228  -16.0145   22.6538 C.3     1  UNL1        0.0991
     15 F          -4.4047  -15.5418   26.7060 F       1  UNL1       -0.2042
     16 C          -5.7979  -15.5851   26.1516 C.ar    1  UNL1        0.1437
     17 C          -6.9751  -15.4353   27.0691 C.ar    1  UNL1        0.0296
     18 C          -8.3682  -15.4785   26.5148 C.ar    1  UNL1        0.0020
     19 C          -8.5841  -15.6716   25.0430 C.ar    1  UNL1       -0.0028
     20 C          -7.4069  -15.8214   24.1256 C.ar    1  UNL1       -0.0000
     21 C          -6.0138  -15.7781   24.6799 C.ar    1  UNL1        0.0962
     22 C          -4.8365  -15.9279   23.7625 C.3     1  UNL1        0.4204
     23 F          -3.6593  -16.0777   22.8450 F       1  UNL1       -0.1658
     24 F          -5.0792  -14.5484   23.2259 F       1  UNL1       -0.1658
     25 F          -4.5939  -17.3075   24.2990 F       1  UNL1       -0.1658
@<TRIPOS>BOND
     1    15    16    1
     2    16    17   ar
     3    17    18   ar
     4    18    19   ar
     5    19    20   ar
     6    20    14    1
     7    14     1    1
     8     1     2    1
     9     2     3    1
    10     3     4    1
    11     4     5    1
    12     5     6    1
    13     6     7    1
    14     8     1    1
    15     8     9    1
    16     9    10    1
    17    10    11    1
    18    11    12    1
    19    20    21   ar
    20    21    22    1
    21    22    23    1
    22    22    24    1
    23    22    25    1
    24    21    16   ar
    25     7     2    1
    26    12     8    1
    27    11    13    1
@<TRIPOS>MOLECULE
*****
 25 27 0 0 0
SMALL
GASTEIGER

@<TRIPOS>ATOM
      1 N          -6.2962  -18.7976   22.3084 N.3     1  UNL1       -0.2700
      2 C          -6.3067  -17.4382   22.9425 C.3     1  UNL1        0.0628
      3 C          -5.0961  -16.9442   23.6776 C.3     1  UNL1        0.0481
      4 C          -5.1066  -15.5849   24.3117 C.3     1  UNL1        0.1435
      5 O          -6.3277  -14.7196   24.2107 O.3     1  UNL1       -0.3537
      6 C          -7.5383  -15.2136   23.4755 C.3     1  UNL1        0.1435
      7 C          -7.5277  -16.5729   22.8415 C.3     1  UNL1        0.0481
      8 C          -5.1081  -19.2427   21.5082 C.3     1  UNL1        0.0748
      9 C          -4.9971  -19.2286   20.0124 C.3     1  UNL1        0.0344
     10 C          -3.6428  -19.7573   19.6430 C.3     1  UNL1        0.0700
     11 N          -2.9168  -20.0982   20.9105 N.3     1  UNL1       -0.2963
     12 C          -3.8224  -19.7802   22.0633 C.3     1  UNL1        0.0847
     13 H          -2.0621  -19.5458   20.9792 H       1  UNL1        0.1233
     14 C          -7.4737  -19.7117   22.4745 C.3     1  UNL1        0.0991
     15 F         -12.5451  -18.6332   22.8193 F       1  UNL1       -0.2042
     16 C         -11.3149  -18.8414   21.9865 C.ar    1  UNL1        0.1437
     17 C         -11.3903  -18.7185   20.4935 C.ar    1  UNL1        0.0296
     18 C         -10.1602  -18.9266   19.6608 C.ar    1  UNL1        0.0020
     19 C          -8.8547  -19.2577   20.3211 C.ar    1  UNL1       -0.0028
     20 C          -8.7793  -19.3806   21.8141 C.ar    1  UNL1       -0.0000
     21 C         -10.0094  -19.1725   22.6469 C.ar    1  UNL1        0.0962
     22 C          -9.9340  -19.2954   24.1399 C.3     1  UNL1        0.4204
     23 F          -9.8586  -19.4183   25.6330 F       1  UNL1       -0.1658
     24 F          -9.9640  -20.7902   24.0184 F       1  UNL1       -0.1658
     25 F          -9.9041  -17.8006   24.2615 F       1  UNL1       -0.1658
@<TRIPOS>BOND
     1    15    16    1
     2    16    17   ar
     3    17    18   ar
     4    18    19   ar
     5    19    20   ar
     6    20    14    1
     7    14     1    1
     8     1     2    1
     9     2     3    1
    10     3     4    1
    11     4     5    1
    12     5     6    1
    13     6     7    1
    14     8     1    1
    15     8     9    1
    16     9    10    1
    17    10    11    1
    18    11    12    1
    19    20    21   ar
    20    21    22    1
    21    22    23    1
    22    22    24    1
    23    22    25    1
    24    21    16   ar
    25     7     2    1
    26    12     8    1
    27    11    13    1
@<TRIPOS>MOLECULE
*****
 25 27 0 0 0
SMALL
GASTEIGER

@<TRIPOS>ATOM
      1 N          -6.6109  -18.1644   21.9424 N.3     1  UNL1       -0.2700
      2 C          -6.5123  -17.0164   22.9029 C.3     1  UNL1        0.0628
      3 C          -7.7160  -16.1657   23.1811 C.3     1  UNL1        0.0481
      4 C          -7.6173  -15.0178   24.1415 C.3     1  UNL1        0.1435
      5 O          -6.3149  -14.7205   24.8237 O.3     1  UNL1       -0.3537
      6 C          -5.1112  -15.5711   24.5455 C.3     1  UNL1        0.1435
      7 C          -5.2099  -16.7191   23.5851 C.3     1  UNL1        0.0481
      8 C          -5.3769  -18.9206   21.5483 C.3     1  UNL1        0.0748
      9 C          -4.9892  -19.3093   20.1524 C.3     1  UNL1        0.0344
     10 C          -3.6866  -20.0498   20.2222 C.3     1  UNL1        0.0700
     11 N          -3.2692  -20.1188   21.6613 N.3     1  UNL1       -0.2963
     12 C          -4.3139  -19.4209   22.4808 C.3     1  UNL1        0.0847
     13 H          -2.3681  -19.6567   21.7829 H       1  UNL1        0.1233
     14 C          -7.9435  -18.5562   21.3762 C.3     1  UNL1        0.0991
     15 F         -12.9612  -18.2865   22.6994 F       1  UNL1       -0.2042
     16 C         -11.5756  -18.8004   22.9568 C.ar    1  UNL1        0.1437
     17 C         -11.3133  -19.6932   24.1333 C.ar    1  UNL1        0.0296
     18 C          -9.9278  -20.2070   24.3907 C.ar    1  UNL1        0.0020
     19 C          -8.8046  -19.8280   23.4717 C.ar    1  UNL1       -0.0028
     20 C          -9.0668  -18.9352   22.2952 C.ar    1  UNL1       -0.0000
     21 C         -10.4523  -18.4213   22.0378 C.ar    1  UNL1        0.0962
     22 C         -10.7146  -17.5285   20.8614 C.3     1  UNL1        0.4204
     23 F         -10.9768  -16.6356   19.6849 F       1  UNL1       -0.1658
     24 F         -10.5444  -16.3233   21.7381 F       1  UNL1       -0.1658
     25 F         -10.8848  -18.7337   19.9847 F       1  UNL1       -0.1658
@<TRIPOS>BOND
     1    15    16    1
     2    16    17   ar
     3    17    18   ar
     4    18    19   ar
     5    19    20   ar
     6    20    14    1
     7    14     1    1
     8     1     2    1
     9     2     3    1
    10     3     4    1
    11     4     5    1
    12     5     6    1
    13     6     7    1
    14     8     1    1
    15     8     9    1
    16     9    10    1
    17    10    11    1
    18    11    12    1
    19    20    21   ar
    20    21    22    1
    21    22    23    1
    22    22    24    1
    23    22    25    1
    24    21    16   ar
    25     7     2    1
    26    12     8    1
    27    11    13    1
@<TRIPOS>MOLECULE
*****
 25 27 0 0 0
SMALL
GASTEIGER

@<TRIPOS>ATOM
      1 N          -8.4574  -16.6565   23.8752 N.3     1  UNL1       -0.2700
      2 C          -9.8474  -17.2194   23.8366 C.3     1  UNL1        0.0628
      3 C         -10.8872  -16.5901   22.9576 C.3     1  UNL1        0.0481
      4 C         -12.2770  -17.1529   22.9190 C.3     1  UNL1        0.1435
      5 O         -12.6270  -18.3451   23.7594 O.3     1  UNL1       -0.3537
      6 C         -11.5871  -18.9744   24.6384 C.3     1  UNL1        0.1435
      7 C         -10.1973  -18.4115   24.6770 C.3     1  UNL1        0.0481
      8 C          -7.9273  -16.0537   25.1423 C.3     1  UNL1        0.0748
      9 C          -8.4992  -16.2442   26.5159 C.3     1  UNL1        0.0344
     10 C          -7.6576  -15.4629   27.4809 C.3     1  UNL1        0.0700
     11 N          -6.5655  -14.7895   26.7037 N.3     1  UNL1       -0.2963
     12 C          -6.7323  -15.1547   25.2584 C.3     1  UNL1        0.0847
     13 H          -5.6559  -15.1074   27.0384 H       1  UNL1        0.1233
     14 C          -7.5977  -16.6964   22.6467 C.3     1  UNL1        0.0991
     15 F          -6.0091  -21.3991   21.1102 F       1  UNL1       -0.2042
     16 C          -5.7187  -20.0764   21.7552 C.ar    1  UNL1        0.1437
     17 C          -4.3434  -19.7823   22.2770 C.ar    1  UNL1        0.0296
     18 C          -4.0530  -18.4596   22.9220 C.ar    1  UNL1        0.0020
     19 C          -5.1377  -17.4310   23.0452 C.ar    1  UNL1       -0.0028
     20 C          -6.5130  -17.7251   22.5234 C.ar    1  UNL1       -0.0000
     21 C          -6.8034  -19.0478   21.8785 C.ar    1  UNL1        0.0962
     22 C          -8.1787  -19.3418   21.3567 C.3     1  UNL1        0.4204
     23 F          -9.5539  -19.6359   20.8349 F       1  UNL1       -0.1658
     24 F          -8.5253  -20.0167   22.6506 F       1  UNL1       -0.1658
     25 F          -7.8320  -18.6670   20.0627 F       1  UNL1       -0.1658
@<TRIPOS>BOND
     1    15    16    1
     2    16    17   ar
     3    17    18   ar
     4    18    19   ar
     5    19    20   ar
     6    20    14    1
     7    14     1    1
     8     1     2    1
     9     2     3    1
    10     3     4    1
    11     4     5    1
    12     5     6    1
    13     6     7    1
    14     8     1    1
    15     8     9    1
    16     9    10    1
    17    10    11    1
    18    11    12    1
    19    20    21   ar
    20    21    22    1
    21    22    23    1
    22    22    24    1
    23    22    25    1
    24    21    16   ar
    25     7     2    1
    26    12     8    1
    27    11    13    1
@<TRIPOS>MOLECULE
*****
 25 27 0 0 0
SMALL
GASTEIGER

@<TRIPOS>ATOM
      1 N          -8.3820  -17.1016   21.9914 N.3     1  UNL1       -0.2700
      2 C          -7.6886  -18.3190   21.4554 C.3     1  UNL1        0.0628
      3 C          -6.4462  -18.8294   22.1230 C.3     1  UNL1        0.0481
      4 C          -5.7529  -20.0468   21.5869 C.3     1  UNL1        0.1435
      5 O          -6.3021  -20.7537   20.3833 O.3     1  UNL1       -0.3537
      6 C          -7.5445  -20.2433   19.7158 C.3     1  UNL1        0.1435
      7 C          -8.2378  -19.0259   20.2518 C.3     1  UNL1        0.0481
      8 C          -9.8802  -17.0292   21.9878 C.3     1  UNL1        0.0748
      9 C         -10.8083  -17.9294   22.7484 C.3     1  UNL1        0.0344
     10 C         -12.2151  -17.5005   22.4537 C.3     1  UNL1        0.0700
     11 N         -12.1566  -16.3352   21.5110 N.3     1  UNL1       -0.2963
     12 C         -10.7135  -16.0439   21.2231 C.3     1  UNL1        0.0847
     13 H         -12.5952  -15.5204   21.9401 H       1  UNL1        0.1233
     14 C          -7.5771  -15.9566   22.5310 C.3     1  UNL1        0.0991
     15 F          -4.4730  -15.5795   26.6810 F       1  UNL1       -0.2042
     16 C          -5.8501  -15.6064   26.0869 C.ar    1  UNL1        0.1437
     17 C          -7.0523  -15.4717   26.9739 C.ar    1  UNL1        0.0296
     18 C          -8.4294  -15.4986   26.3799 C.ar    1  UNL1        0.0020
     19 C          -8.6043  -15.6602   24.8989 C.ar    1  UNL1       -0.0028
     20 C          -7.4021  -15.7950   24.0120 C.ar    1  UNL1       -0.0000
     21 C          -6.0250  -15.7681   24.6060 C.ar    1  UNL1        0.0962
     22 C          -4.8229  -15.9028   23.7191 C.3     1  UNL1        0.4204
     23 F          -3.6207  -16.0376   22.8321 F       1  UNL1       -0.1658
     24 F          -4.5995  -17.2941   24.2332 F       1  UNL1       -0.1658
     25 F          -5.0463  -14.5115   23.2049 F       1  UNL1       -0.1658
@<TRIPOS>BOND
     1    15    16    1
     2    16    17   ar
     3    17    18   ar
     4    18    19   ar
     5    19    20   ar
     6    20    14    1
     7    14     1    1
     8     1     2    1
     9     2     3    1
    10     3     4    1
    11     4     5    1
    12     5     6    1
    13     6     7    1
    14     8     1    1
    15     8     9    1
    16     9    10    1
    17    10    11    1
    18    11    12    1
    19    20    21   ar
    20    21    22    1
    21    22    23    1
    22    22    24    1
    23    22    25    1
    24    21    16   ar
    25     7     2    1
    26    12     8    1
    27    11    13    1
@<TRIPOS>MOLECULE
*****
 25 27 0 0 0
SMALL
GASTEIGER

@<TRIPOS>ATOM
      1 N          -8.7436  -17.0175   23.5464 N.3     1  UNL1       -0.2700
      2 C          -7.8279  -16.3737   24.5450 C.3     1  UNL1        0.0628
      3 C          -6.4220  -16.0236   24.1567 C.3     1  UNL1        0.0481
      4 C          -5.5064  -15.3799   25.1552 C.3     1  UNL1        0.1435
      5 O          -5.9967  -15.0863   26.5421 O.3     1  UNL1       -0.3537
      6 C          -7.4025  -15.4365   26.9305 C.3     1  UNL1        0.1435
      7 C          -8.3182  -16.0802   25.9319 C.3     1  UNL1        0.0481
      8 C          -9.8775  -17.8801   24.0156 C.3     1  UNL1        0.0748
      9 C         -11.3367  -17.6213   23.7839 C.3     1  UNL1        0.0344
     10 C         -12.1123  -18.7342   24.4241 C.3     1  UNL1        0.0700
     11 N         -11.1325  -19.6809   25.0515 N.3     1  UNL1       -0.2963
     12 C          -9.7513  -19.1530   24.7991 C.3     1  UNL1        0.0847
     13 H         -11.2306  -20.6069   24.6351 H       1  UNL1        0.1233
     14 C          -8.5255  -16.7986   22.0786 C.3     1  UNL1        0.0991
     15 F          -7.2133  -21.0939   19.4654 F       1  UNL1       -0.2042
     16 C          -8.2167  -20.0280   19.7926 C.ar    1  UNL1        0.1437
     17 C          -9.5674  -20.0438   19.1404 C.ar    1  UNL1        0.0296
     18 C         -10.5707  -18.9779   19.4675 C.ar    1  UNL1        0.0020
     19 C         -10.2234  -17.8962   20.4469 C.ar    1  UNL1       -0.0028
     20 C          -8.8727  -17.8804   21.0991 C.ar    1  UNL1       -0.0000
     21 C          -7.8694  -18.9463   20.7720 C.ar    1  UNL1        0.0962
     22 C          -6.5187  -18.9305   21.4243 C.3     1  UNL1        0.4204
     23 F          -5.1680  -18.9147   22.0765 F       1  UNL1       -0.1658
     24 F          -7.1110  -19.5296   22.6653 F       1  UNL1       -0.1658
     25 F          -5.9264  -18.3313   20.1832 F       1  UNL1       -0.1658
@<TRIPOS>BOND
     1    15    16    1
     2    16    17   ar
     3    17    18   ar
     4    18    19   ar
     5    19    20   ar
     6    20    14    1
     7    14     1    1
     8     1     2    1
     9     2     3    1
    10     3     4    1
    11     4     5    1
    12     5     6    1
    13     6     7    1
    14     8     1    1
    15     8     9    1
    16     9    10    1
    17    10    11    1
    18    11    12    1
    19    20    21   ar
    20    21    22    1
    21    22    23    1
    22    22    24    1
    23    22    25    1
    24    21    16   ar
    25     7     2    1
    26    12     8    1
    27    11    13    1
