@<TRIPOS>MOLECULE
*****
 35 39 0 0 0
SMALL
GASTEIGER

@<TRIPOS>ATOM
      1 C         -10.2203  -17.6305   20.9731 C.2     1  UNL1        0.4048
      2 O         -11.2794  -17.7941   19.9235 O.2     1  UNL1       -0.2262
      3 N          -8.9405  -18.4066   20.8745 N.am    1  UNL1       -0.2443
      4 C          -8.5798  -19.3782   19.7901 C.3     1  UNL1        0.0985
      5 C          -7.2130  -19.9195   20.0885 C.3     1  UNL1        0.0429
      6 C          -6.7290  -19.2824   21.3573 C.3     1  UNL1        0.0920
      7 C          -7.7967  -18.3475   21.8431 C.3     1  UNL1        0.1162
      8 N          -5.4091  -19.5359   22.0234 N.pl3   1  UNL1       -0.3180
      9 H          -5.3122  -20.2850   22.6548 H       1  UNL1        0.1482
     10 C          -4.2370  -18.6479   21.7276 C.ar    1  UNL1        0.1284
     11 C          -3.6177  -17.8331   22.8243 C.ar    1  UNL1        0.0341
     12 C          -2.4456  -16.9452   22.5285 C.ar    1  UNL1        0.0043
     13 C          -1.8927  -16.8719   21.1361 C.ar    1  UNL1        0.0232
     14 C          -2.5120  -17.6866   20.0394 C.ar    1  UNL1        0.1540
     15 N          -3.6842  -18.5746   20.3352 N.ar    1  UNL1       -0.2269
     16 C          -1.9591  -17.6133   18.6469 C.3     1  UNL1        0.4349
     17 F          -1.4062  -17.5401   17.2544 F       1  UNL1       -0.1644
     18 F          -0.6575  -18.1776   19.1340 F       1  UNL1       -0.1644
     19 F          -3.2607  -17.0490   18.1598 F       1  UNL1       -0.1644
     20 O         -10.4411  -16.6908   22.1211 O.3     1  UNL1       -0.4383
     21 C         -10.5295  -17.8092   22.8628 C.3     1  UNL1        0.0688
     22 C          -9.8751  -17.4628   24.1673 C.3     1  UNL1        0.0086
     23 C          -9.7882  -18.4883   25.2584 C.3     1  UNL1        0.0007
     24 C         -10.3556  -19.8604   25.0450 C.3     1  UNL1        0.0036
     25 C         -11.0100  -20.2068   23.7406 C.3     1  UNL1        0.0407
     26 C         -11.0970  -19.1813   22.6494 C.3     1  UNL1        0.0122
     27 C         -10.0131  -17.0829   23.5043 C.3     1  UNL1        0.1702
     28 C          -9.3076  -16.0907   24.3806 C.3     1  UNL1        0.0407
     29 C          -9.2207  -17.1163   25.4717 C.3     1  UNL1        0.0036
     30 C          -9.9620  -16.4372   23.0761 C.3     1  UNL1        0.0122
     31 N         -11.9553  -16.2780   21.3225 N.am    1  UNL1       -0.3288
     32 C         -10.6164  -16.7836   21.7716 C.2     1  UNL1        0.2184
     33 O          -9.6009  -16.0653   20.9334 O.2     1  UNL1       -0.2754
     34 H         -12.0124  -15.6049   20.6063 H       1  UNL1        0.1449
     35 H         -12.7770  -16.6192   21.7440 H       1  UNL1        0.1449
@<TRIPOS>BOND
     1    31    32   am
     2    32    33    2
     3    21    32    1
     4    21    22    1
     5    22    23    1
     6    23    24    1
     7    24    25    1
     8    25    26    1
     9    25    27    1
    10    27    20    1
    11    20     1    1
    12     1     2    2
    13     1     3   am
    14     3     4    1
    15     4     5    1
    16     5     6    1
    17     6     8    1
    18     8    10    1
    19    10    11   ar
    20    11    12   ar
    21    12    13   ar
    22    13    14   ar
    23    14    16    1
    24    16    17    1
    25    16    18    1
    26    16    19    1
    27    14    15   ar
    28     6     7    1
    29    27    28    1
    30    28    29    1
    31    28    30    1
    32    26    21    1
    33     7     3    1
    34    30    21    1
    35    29    23    1
    36    15    10   ar
    37    31    34    1
    38    31    35    1
    39     8     9    1
@<TRIPOS>MOLECULE
*****
 35 39 0 0 0
SMALL
GASTEIGER

@<TRIPOS>ATOM
      1 C         -10.7425  -17.5318   21.0208 C.2     1  UNL1        0.4048
      2 O         -11.8350  -17.2722   20.0263 O.2     1  UNL1       -0.2262
      3 N          -9.5814  -18.4055   20.6485 N.am    1  UNL1       -0.2443
      4 C          -9.3771  -19.0846   19.3267 C.3     1  UNL1        0.0985
      5 C          -8.0902  -19.8522   19.3939 C.3     1  UNL1        0.0429
      6 C          -7.4991  -19.6476   20.7573 C.3     1  UNL1        0.0920
      7 C          -8.4207  -18.7534   21.5326 C.3     1  UNL1        0.1162
      8 N          -6.2123  -20.2341   21.2575 N.pl3   1  UNL1       -0.3180
      9 H          -6.1745  -21.1801   21.5272 H       1  UNL1        0.1482
     10 C          -4.9830  -19.3791   21.3468 C.ar    1  UNL1        0.1284
     11 C          -4.5565  -18.8147   22.6695 C.ar    1  UNL1        0.0341
     12 C          -3.3273  -17.9597   22.7588 C.ar    1  UNL1        0.0043
     13 C          -2.5246  -17.6692   21.5254 C.ar    1  UNL1        0.0232
     14 C          -2.9511  -18.2336   20.2028 C.ar    1  UNL1        0.1540
     15 N          -4.1804  -19.0886   20.1135 N.ar    1  UNL1       -0.2269
     16 C          -2.1484  -17.9430   18.9693 C.3     1  UNL1        0.4349
     17 F          -1.3457  -17.6525   17.7359 F       1  UNL1       -0.1644
     18 F          -3.2957  -17.1567   18.4079 F       1  UNL1       -0.1644
     19 F          -1.0011  -18.7294   19.5308 F       1  UNL1       -0.1644
     20 O         -10.8111  -16.9178   22.3876 O.3     1  UNL1       -0.4383
     21 C         -10.1113  -16.8335   23.5329 C.3     1  UNL1        0.0688
     22 C         -10.4602  -18.0783   24.2936 C.3     1  UNL1        0.0086
     23 C          -9.8538  -18.3275   25.6427 C.3     1  UNL1        0.0007
     24 C          -8.8985  -17.3319   26.2312 C.3     1  UNL1        0.0036
     25 C          -8.5497  -16.0871   25.4705 C.3     1  UNL1        0.0407
     26 C          -9.1560  -15.8379   24.1214 C.3     1  UNL1        0.0122
     27 C         -10.6625  -17.7804   23.6057 C.3     1  UNL1        0.1702
     28 C         -11.4154  -19.0739   23.7051 C.3     1  UNL1        0.0407
     29 C         -10.8090  -19.3231   25.0542 C.3     1  UNL1        0.0036
     30 C         -11.0665  -17.8291   22.9445 C.3     1  UNL1        0.0122
     31 N          -9.9788  -15.7621   21.1697 N.am    1  UNL1       -0.3288
     32 C         -10.7176  -16.5842   22.1837 C.2     1  UNL1        0.2184
     33 O         -12.0043  -16.9903   21.5285 O.2     1  UNL1       -0.2754
     34 H         -10.3768  -15.5985   20.2842 H       1  UNL1        0.1449
     35 H          -9.0959  -15.3861   21.3897 H       1  UNL1        0.1449
@<TRIPOS>BOND
     1    31    32   am
     2    32    33    2
     3    21    32    1
     4    21    22    1
     5    22    23    1
     6    23    24    1
     7    24    25    1
     8    25    26    1
     9    25    27    1
    10    27    20    1
    11    20     1    1
    12     1     2    2
    13     1     3   am
    14     3     4    1
    15     4     5    1
    16     5     6    1
    17     6     8    1
    18     8    10    1
    19    10    11   ar
    20    11    12   ar
    21    12    13   ar
    22    13    14   ar
    23    14    16    1
    24    16    17    1
    25    16    18    1
    26    16    19    1
    27    14    15   ar
    28     6     7    1
    29    27    28    1
    30    28    29    1
    31    28    30    1
    32    26    21    1
    33     7     3    1
    34    30    21    1
    35    29    23    1
    36    15    10   ar
    37    31    34    1
    38    31    35    1
    39     8     9    1
@<TRIPOS>MOLECULE
*****
 35 39 0 0 0
SMALL
GASTEIGER

@<TRIPOS>ATOM
      1 C         -10.9538  -17.4051   21.1928 C.2     1  UNL1        0.4048
      2 O         -12.2131  -17.1120   20.4325 O.2     1  UNL1       -0.2262
      3 N          -9.9146  -18.3112   20.6019 N.am    1  UNL1       -0.2443
      4 C          -9.9948  -18.9931   19.2683 C.3     1  UNL1        0.0985
      5 C          -8.7425  -19.7978   19.0830 C.3     1  UNL1        0.0429
      6 C          -7.8883  -19.6132   20.3022 C.3     1  UNL1        0.0920
      7 C          -8.6127  -18.6944   21.2409 C.3     1  UNL1        0.1162
      8 N          -6.5455  -20.2376   20.5407 N.pl3   1  UNL1       -0.3180
      9 H          -6.4021  -21.1899   20.3360 H       1  UNL1        0.1482
     10 C          -5.4212  -19.4113   21.0912 C.ar    1  UNL1        0.1284
     11 C          -4.0896  -19.4017   20.4008 C.ar    1  UNL1        0.0341
     12 C          -2.9653  -18.5754   20.9512 C.ar    1  UNL1        0.0043
     13 C          -3.1726  -17.7586   22.1922 C.ar    1  UNL1        0.0232
     14 C          -4.5042  -17.7682   22.8826 C.ar    1  UNL1        0.1540
     15 N          -5.6285  -18.5946   22.3321 N.ar    1  UNL1       -0.2269
     16 C          -4.7115  -16.9514   24.1236 C.3     1  UNL1        0.4349
     17 F          -4.9189  -16.1347   25.3645 F       1  UNL1       -0.1644
     18 F          -5.8140  -16.1962   23.4423 F       1  UNL1       -0.1644
     19 F          -3.6090  -17.7067   24.8048 F       1  UNL1       -0.1644
     20 O         -10.7336  -16.7922   22.5440 O.3     1  UNL1       -0.4383
     21 C         -10.0047  -16.6953   23.6701 C.3     1  UNL1        0.0688
     22 C         -10.2658  -17.9721   24.4127 C.3     1  UNL1        0.0086
     23 C          -9.6068  -18.2172   25.7377 C.3     1  UNL1        0.0007
     24 C          -8.6868  -17.1855   26.3201 C.3     1  UNL1        0.0036
     25 C          -8.4257  -15.9087   25.5775 C.3     1  UNL1        0.0407
     26 C          -9.0846  -15.6636   24.2525 C.3     1  UNL1        0.0122
     27 C         -10.5039  -17.6710   23.7378 C.3     1  UNL1        0.1702
     28 C         -11.1858  -19.0038   23.8303 C.3     1  UNL1        0.0407
     29 C         -10.5268  -19.2489   25.1553 C.3     1  UNL1        0.0036
     30 C         -10.9247  -17.7269   23.0877 C.3     1  UNL1        0.0122
     31 N          -9.9067  -15.7645   21.2464 N.am    1  UNL1       -0.3288
     32 C         -10.6636  -16.4501   22.3450 C.2     1  UNL1        0.2184
     33 O         -12.0238  -16.7473   21.7869 O.2     1  UNL1       -0.2754
     34 H         -10.3392  -15.6036   20.3768 H       1  UNL1        0.1449
     35 H          -8.9774  -15.4755   21.3950 H       1  UNL1        0.1449
@<TRIPOS>BOND
     1    31    32   am
     2    32    33    2
     3    21    32    1
     4    21    22    1
     5    22    23    1
     6    23    24    1
     7    24    25    1
     8    25    26    1
     9    25    27    1
    10    27    20    1
    11    20     1    1
    12     1     2    2
    13     1     3   am
    14     3     4    1
    15     4     5    1
    16     5     6    1
    17     6     8    1
    18     8    10    1
    19    10    11   ar
    20    11    12   ar
    21    12    13   ar
    22    13    14   ar
    23    14    16    1
    24    16    17    1
    25    16    18    1
    26    16    19    1
    27    14    15   ar
    28     6     7    1
    29    27    28    1
    30    28    29    1
    31    28    30    1
    32    26    21    1
    33     7     3    1
    34    30    21    1
    35    29    23    1
    36    15    10   ar
    37    31    34    1
    38    31    35    1
    39     8     9    1
@<TRIPOS>MOLECULE
*****
 35 39 0 0 0
SMALL
GASTEIGER

@<TRIPOS>ATOM
      1 C         -11.0351  -16.1589   22.1048 C.2     1  UNL1        0.4048
      2 O         -12.2465  -15.4980   22.6927 O.2     1  UNL1       -0.2262
      3 N          -9.7281  -16.1191   22.8398 N.am    1  UNL1       -0.2443
      4 C          -9.4810  -15.4598   24.1643 C.3     1  UNL1        0.0985
      5 C          -8.0389  -15.6649   24.5224 C.3     1  UNL1        0.0429
      6 C          -7.3946  -16.4510   23.4192 C.3     1  UNL1        0.0920
      7 C          -8.4386  -16.7317   22.3793 C.3     1  UNL1        0.1162
      8 N          -5.9586  -16.8809   23.3653 N.pl3   1  UNL1       -0.3180
      9 H          -5.2916  -16.4426   23.9418 H       1  UNL1        0.1482
     10 C          -5.5387  -17.9785   22.4331 C.ar    1  UNL1        0.1284
     11 C          -6.5062  -19.0660   22.0710 C.ar    1  UNL1        0.0341
     12 C          -6.0864  -20.1635   21.1388 C.ar    1  UNL1        0.0043
     13 C          -4.6990  -20.1736   20.5688 C.ar    1  UNL1        0.0232
     14 C          -3.7314  -19.0861   20.9309 C.ar    1  UNL1        0.1540
     15 N          -4.1513  -17.9885   21.8631 N.ar    1  UNL1       -0.2269
     16 C          -2.3440  -19.0962   20.3608 C.3     1  UNL1        0.4349
     17 F          -0.9566  -19.1062   19.7907 F       1  UNL1       -0.1644
     18 F          -2.9134  -19.1941   18.9766 F       1  UNL1       -0.1644
     19 F          -1.7746  -18.9982   21.7450 F       1  UNL1       -0.1644
     20 O         -11.1307  -16.8595   20.7820 O.3     1  UNL1       -0.4383
     21 C         -11.1539  -17.9176   21.6119 C.3     1  UNL1        0.0688
     22 C         -10.6089  -19.0573   20.8032 C.3     1  UNL1        0.0086
     23 C         -10.4861  -20.4207   21.4164 C.3     1  UNL1        0.0007
     24 C         -10.9083  -20.6443   22.8383 C.3     1  UNL1        0.0036
     25 C         -11.4532  -19.5046   23.6470 C.3     1  UNL1        0.0407
     26 C         -11.5760  -18.1412   23.0338 C.3     1  UNL1        0.0122
     27 C         -10.7451  -18.3047   20.6691 C.3     1  UNL1        0.1702
     28 C         -10.1868  -18.8336   19.3813 C.3     1  UNL1        0.0407
     29 C         -10.0640  -20.1970   19.9945 C.3     1  UNL1        0.0036
     30 C         -10.7317  -17.6939   20.1900 C.3     1  UNL1        0.0122
     31 N         -12.6056  -16.0760   20.4934 N.am    1  UNL1       -0.3288
     32 C         -11.2767  -16.5541   20.9987 C.2     1  UNL1        0.2184
     33 O         -10.3092  -15.4379   20.7379 O.2     1  UNL1       -0.2754
     34 H         -12.6862  -15.1811   20.0909 H       1  UNL1        0.1449
     35 H         -13.3972  -16.6570   20.5641 H       1  UNL1        0.1449
@<TRIPOS>BOND
     1    31    32   am
     2    32    33    2
     3    21    32    1
     4    21    22    1
     5    22    23    1
     6    23    24    1
     7    24    25    1
     8    25    26    1
     9    25    27    1
    10    27    20    1
    11    20     1    1
    12     1     2    2
    13     1     3   am
    14     3     4    1
    15     4     5    1
    16     5     6    1
    17     6     8    1
    18     8    10    1
    19    10    11   ar
    20    11    12   ar
    21    12    13   ar
    22    13    14   ar
    23    14    16    1
    24    16    17    1
    25    16    18    1
    26    16    19    1
    27    14    15   ar
    28     6     7    1
    29    27    28    1
    30    28    29    1
    31    28    30    1
    32    26    21    1
    33     7     3    1
    34    30    21    1
    35    29    23    1
    36    15    10   ar
    37    31    34    1
    38    31    35    1
    39     8     9    1
@<TRIPOS>MOLECULE
*****
 35 39 0 0 0
SMALL
GASTEIGER

@<TRIPOS>ATOM
      1 C         -10.3303  -18.3938   23.9930 C.2     1  UNL1        0.4048
      2 O         -11.4992  -18.2247   24.9177 O.2     1  UNL1       -0.2262
      3 N          -9.1121  -17.5345   24.1592 N.am    1  UNL1       -0.2443
      4 C          -8.9189  -16.4702   25.1983 C.3     1  UNL1        0.0985
      5 C          -7.5605  -15.8667   24.9968 C.3     1  UNL1        0.0429
      6 C          -6.9142  -16.5580   23.8330 C.3     1  UNL1        0.0920
      7 C          -7.8731  -17.5888   23.3154 C.3     1  UNL1        0.1162
      8 N          -5.5488  -16.2692   23.2834 N.pl3   1  UNL1       -0.3180
      9 H          -5.1866  -15.3545   23.3203 H       1  UNL1        0.1482
     10 C          -4.7351  -17.3741   22.6774 C.ar    1  UNL1        0.1284
     11 C          -3.2434  -17.3802   22.8350 C.ar    1  UNL1        0.0341
     12 C          -2.4298  -18.4850   22.2291 C.ar    1  UNL1        0.0043
     13 C          -3.1077  -19.5838   21.4656 C.ar    1  UNL1        0.0232
     14 C          -4.5994  -19.5777   21.3081 C.ar    1  UNL1        0.1540
     15 N          -5.4131  -18.4728   21.9140 N.ar    1  UNL1       -0.2269
     16 C          -5.2775  -20.6766   20.5445 C.3     1  UNL1        0.4349
     17 F          -5.9556  -21.7753   19.7811 F       1  UNL1       -0.1644
     18 F          -6.4992  -20.5171   21.4001 F       1  UNL1       -0.1644
     19 F          -4.0558  -20.8360   19.6890 F       1  UNL1       -0.1644
     20 O         -10.3797  -19.4220   22.9021 O.3     1  UNL1       -0.4383
     21 C         -10.9658  -18.3876   22.2734 C.3     1  UNL1        0.0688
     22 C         -10.6961  -18.6161   20.8156 C.3     1  UNL1        0.0086
     23 C         -11.2099  -17.6429   19.7964 C.3     1  UNL1        0.0007
     24 C         -11.9933  -16.4412   20.2348 C.3     1  UNL1        0.0036
     25 C         -12.2629  -16.2128   21.6926 C.3     1  UNL1        0.0407
     26 C         -11.7492  -17.1859   22.7118 C.3     1  UNL1        0.0122
     27 C         -10.5207  -18.9921   21.4719 C.3     1  UNL1        0.1702
     28 C          -9.9127  -19.8178   20.3772 C.3     1  UNL1        0.0407
     29 C         -10.4264  -18.8446   19.3579 C.3     1  UNL1        0.0036
     30 C         -10.1824  -19.5893   21.8349 C.3     1  UNL1        0.0122
     31 N         -11.4113  -20.0747   24.1983 N.am    1  UNL1       -0.3288
     32 C         -10.4520  -19.3608   23.2927 C.2     1  UNL1        0.2184
     33 O          -9.0850  -19.8480   23.6719 O.2     1  UNL1       -0.2754
     34 H         -11.0741  -20.7134   24.8673 H       1  UNL1        0.1449
     35 H         -12.3781  -19.9046   24.1236 H       1  UNL1        0.1449
@<TRIPOS>BOND
     1    31    32   am
     2    32    33    2
     3    21    32    1
     4    21    22    1
     5    22    23    1
     6    23    24    1
     7    24    25    1
     8    25    26    1
     9    25    27    1
    10    27    20    1
    11    20     1    1
    12     1     2    2
    13     1     3   am
    14     3     4    1
    15     4     5    1
    16     5     6    1
    17     6     8    1
    18     8    10    1
    19    10    11   ar
    20    11    12   ar
    21    12    13   ar
    22    13    14   ar
    23    14    16    1
    24    16    17    1
    25    16    18    1
    26    16    19    1
    27    14    15   ar
    28     6     7    1
    29    27    28    1
    30    28    29    1
    31    28    30    1
    32    26    21    1
    33     7     3    1
    34    30    21    1
    35    29    23    1
    36    15    10   ar
    37    31    34    1
    38    31    35    1
    39     8     9    1
@<TRIPOS>MOLECULE
*****
 35 39 0 0 0
SMALL
GASTEIGER

@<TRIPOS>ATOM
      1 C         -10.0618  -17.3455   22.7292 C.2     1  UNL1        0.4048
      2 O         -11.3951  -17.0018   22.1343 O.2     1  UNL1       -0.2262
      3 N          -9.1158  -18.2395   21.9836 N.am    1  UNL1       -0.2443
      4 C          -9.3635  -18.8613   20.6412 C.3     1  UNL1        0.0985
      5 C          -8.1568  -19.6747   20.2774 C.3     1  UNL1        0.0429
      6 C          -7.1634  -19.5555   21.3949 C.3     1  UNL1        0.0920
      7 C          -7.7561  -18.6685   22.4494 C.3     1  UNL1        0.1162
      8 N          -5.8141  -20.2087   21.4485 N.pl3   1  UNL1       -0.3180
      9 H          -5.7432  -21.1902   21.4779 H       1  UNL1        0.1482
     10 C          -4.5729  -19.3664   21.4574 C.ar    1  UNL1        0.1284
     11 C          -4.0368  -18.8343   22.7533 C.ar    1  UNL1        0.0341
     12 C          -2.7957  -17.9921   22.7621 C.ar    1  UNL1        0.0043
     13 C          -2.0906  -17.6820   21.4750 C.ar    1  UNL1        0.0232
     14 C          -2.6267  -18.2141   20.1791 C.ar    1  UNL1        0.1540
     15 N          -3.8679  -19.0564   20.1703 N.ar    1  UNL1       -0.2269
     16 C          -1.9216  -17.9040   18.8919 C.3     1  UNL1        0.4349
     17 F          -1.2164  -17.5939   17.6048 F       1  UNL1       -0.1644
     18 F          -0.6859  -18.5818   19.4056 F       1  UNL1       -0.1644
     19 F          -3.1572  -17.2262   18.3784 F       1  UNL1       -0.1644
     20 O          -9.6745  -16.7954   24.0698 O.3     1  UNL1       -0.4383
     21 C          -8.8494  -16.5418   25.1012 C.3     1  UNL1        0.0688
     22 C          -7.7247  -15.7436   24.5115 C.3     1  UNL1        0.0086
     23 C          -6.5983  -15.2762   25.3849 C.3     1  UNL1        0.0007
     24 C          -6.5967  -15.6070   26.8480 C.3     1  UNL1        0.0036
     25 C          -7.7215  -16.4051   27.4377 C.3     1  UNL1        0.0407
     26 C          -8.8479  -16.8725   26.5643 C.3     1  UNL1        0.0122
     27 C          -8.3747  -16.0647   24.2336 C.3     1  UNL1        0.1702
     28 C          -7.7263  -15.4129   23.0484 C.3     1  UNL1        0.0407
     29 C          -6.5999  -14.9455   23.9218 C.3     1  UNL1        0.0036
     30 C          -8.8510  -16.2111   23.6382 C.3     1  UNL1        0.0122
     31 N         -10.4176  -18.4419   24.2762 N.am    1  UNL1       -0.3288
     32 C          -9.9759  -17.0092   24.2279 C.2     1  UNL1        0.2184
     33 O         -10.8592  -16.3381   23.2183 O.2     1  UNL1       -0.2754
     34 H         -11.1569  -18.7487   23.7030 H       1  UNL1        0.1449
     35 H          -9.9682  -19.0754   24.8812 H       1  UNL1        0.1449
@<TRIPOS>BOND
     1    31    32   am
     2    32    33    2
     3    21    32    1
     4    21    22    1
     5    22    23    1
     6    23    24    1
     7    24    25    1
     8    25    26    1
     9    25    27    1
    10    27    20    1
    11    20     1    1
    12     1     2    2
    13     1     3   am
    14     3     4    1
    15     4     5    1
    16     5     6    1
    17     6     8    1
    18     8    10    1
    19    10    11   ar
    20    11    12   ar
    21    12    13   ar
    22    13    14   ar
    23    14    16    1
    24    16    17    1
    25    16    18    1
    26    16    19    1
    27    14    15   ar
    28     6     7    1
    29    27    28    1
    30    28    29    1
    31    28    30    1
    32    26    21    1
    33     7     3    1
    34    30    21    1
    35    29    23    1
    36    15    10   ar
    37    31    34    1
    38    31    35    1
    39     8     9    1
@<TRIPOS>MOLECULE
*****
 35 39 0 0 0
SMALL
GASTEIGER

@<TRIPOS>ATOM
      1 C          -8.8077  -15.9865   23.5869 C.2     1  UNL1        0.4048
      2 O          -9.9091  -15.3091   24.3472 O.2     1  UNL1       -0.2262
      3 N          -7.3940  -15.9040   24.0816 N.am    1  UNL1       -0.2443
      4 C          -6.9317  -15.1843   25.3138 C.3     1  UNL1        0.0985
      5 C          -5.4464  -15.3623   25.4248 C.3     1  UNL1        0.0429
      6 C          -4.9908  -16.1921   24.2612 C.3     1  UNL1        0.0920
      7 C          -6.1945  -16.5269   23.4311 C.3     1  UNL1        0.1162
      8 N          -3.5793  -16.6131   23.9775 N.pl3   1  UNL1       -0.3180
      9 H          -2.8897  -16.5244   24.6744 H       1  UNL1        0.1482
     10 C          -3.2186  -17.1693   22.6319 C.ar    1  UNL1        0.1284
     11 C          -2.1450  -16.5156   21.8134 C.ar    1  UNL1        0.0341
     12 C          -1.7843  -17.0718   20.4679 C.ar    1  UNL1        0.0043
     13 C          -2.4972  -18.2817   19.9408 C.ar    1  UNL1        0.0232
     14 C          -3.5709  -18.9354   20.7593 C.ar    1  UNL1        0.1540
     15 N          -3.9316  -18.3792   22.1049 N.ar    1  UNL1       -0.2269
     16 C          -4.2839  -20.1454   20.2323 C.3     1  UNL1        0.4349
     17 F          -4.9968  -21.3553   19.7052 F       1  UNL1       -0.1644
     18 F          -3.4959  -20.0550   18.9591 F       1  UNL1       -0.1644
     19 F          -5.0717  -20.2357   21.5054 F       1  UNL1       -0.1644
     20 O          -9.1199  -16.7462   22.3318 O.3     1  UNL1       -0.4383
     21 C          -9.3474  -17.8073   23.1263 C.3     1  UNL1        0.0688
     22 C          -8.7642  -18.9763   22.3891 C.3     1  UNL1        0.0086
     23 C          -8.8354  -20.3505   22.9859 C.3     1  UNL1        0.0007
     24 C          -9.4897  -20.5559   24.3200 C.3     1  UNL1        0.0036
     25 C         -10.0729  -19.3869   25.0572 C.3     1  UNL1        0.0407
     26 C         -10.0017  -18.0127   24.4603 C.3     1  UNL1        0.0122
     27 C          -8.8244  -18.2146   22.2508 C.3     1  UNL1        0.1702
     28 C          -8.1099  -18.7710   21.0550 C.3     1  UNL1        0.0407
     29 C          -8.1811  -20.1452   21.6519 C.3     1  UNL1        0.0036
     30 C          -8.6931  -17.6020   21.7922 C.3     1  UNL1        0.0122
     31 N         -10.5382  -15.6855   22.2151 N.am    1  UNL1       -0.3288
     32 C          -9.2762  -16.4330   22.5294 C.2     1  UNL1        0.2184
     33 O          -8.1491  -15.5284   22.1280 O.2     1  UNL1       -0.2754
     34 H         -10.4914  -14.7835   21.8234 H       1  UNL1        0.1449
     35 H         -11.4131  -16.0970   22.4006 H       1  UNL1        0.1449
@<TRIPOS>BOND
     1    31    32   am
     2    32    33    2
     3    21    32    1
     4    21    22    1
     5    22    23    1
     6    23    24    1
     7    24    25    1
     8    25    26    1
     9    25    27    1
    10    27    20    1
    11    20     1    1
    12     1     2    2
    13     1     3   am
    14     3     4    1
    15     4     5    1
    16     5     6    1
    17     6     8    1
    18     8    10    1
    19    10    11   ar
    20    11    12   ar
    21    12    13   ar
    22    13    14   ar
    23    14    16    1
    24    16    17    1
    25    16    18    1
    26    16    19    1
    27    14    15   ar
    28     6     7    1
    29    27    28    1
    30    28    29    1
    31    28    30    1
    32    26    21    1
    33     7     3    1
    34    30    21    1
    35    29    23    1
    36    15    10   ar
    37    31    34    1
    38    31    35    1
    39     8     9    1
@<TRIPOS>MOLECULE
*****
 35 39 0 0 0
SMALL
GASTEIGER

@<TRIPOS>ATOM
      1 C         -10.4788  -17.6407   20.5995 C.2     1  UNL1        0.4048
      2 O         -11.7304  -17.3123   19.8409 O.2     1  UNL1       -0.2262
      3 N          -9.5482  -18.7003   20.0883 N.am    1  UNL1       -0.2443
      4 C          -9.7357  -19.5111   18.8404 C.3     1  UNL1        0.0985
      5 C          -8.5701  -20.4470   18.7161 C.3     1  UNL1        0.0429
      6 C          -7.6621  -20.2145   19.8872 C.3     1  UNL1        0.0920
      7 C          -8.2666  -19.1350   20.7353 C.3     1  UNL1        0.1162
      8 N          -6.3755  -20.9350   20.1620 N.pl3   1  UNL1       -0.3180
      9 H          -6.3064  -21.9019   19.9902 H       1  UNL1        0.1482
     10 C          -5.1941  -20.1823   20.6986 C.ar    1  UNL1        0.1284
     11 C          -3.8424  -20.3643   20.0744 C.ar    1  UNL1        0.0341
     12 C          -2.6611  -19.6116   20.6109 C.ar    1  UNL1        0.0043
     13 C          -2.8315  -18.6769   21.7716 C.ar    1  UNL1        0.0232
     14 C          -4.1832  -18.4949   22.3957 C.ar    1  UNL1        0.1540
     15 N          -5.3646  -19.2476   21.8592 N.ar    1  UNL1       -0.2269
     16 C          -4.3537  -17.5601   23.5565 C.3     1  UNL1        0.4349
     17 F          -4.5241  -16.6254   24.7172 F       1  UNL1       -0.1644
     18 F          -2.9357  -17.8177   23.9721 F       1  UNL1       -0.1644
     19 F          -5.7717  -17.3025   23.1408 F       1  UNL1       -0.1644
     20 O         -10.1578  -16.9096   21.8693 O.3     1  UNL1       -0.4383
     21 C         -11.2000  -17.3746   22.5808 C.3     1  UNL1        0.0688
     22 C         -10.5940  -17.9495   23.8267 C.3     1  UNL1        0.0086
     23 C         -11.4738  -18.5685   24.8720 C.3     1  UNL1        0.0007
     24 C         -12.9597  -18.6125   24.6715 C.3     1  UNL1        0.0036
     25 C         -13.5657  -18.0376   23.4257 C.3     1  UNL1        0.0407
     26 C         -12.6859  -17.4187   22.3804 C.3     1  UNL1        0.0122
     27 C         -10.3158  -17.5989   23.1921 C.3     1  UNL1        0.1702
     28 C          -9.1081  -17.9054   24.0272 C.3     1  UNL1        0.0407
     29 C          -9.9879  -18.5244   25.0725 C.3     1  UNL1        0.0036
     30 C          -9.7142  -17.3305   22.7813 C.3     1  UNL1        0.0122
     31 N         -10.9014  -15.7997   20.5362 N.am    1  UNL1       -0.3288
     32 C         -10.3202  -16.7556   21.5354 C.2     1  UNL1        0.2184
     33 O          -8.8610  -16.8624   21.2051 O.2     1  UNL1       -0.2754
     34 H         -10.3239  -15.3934   19.8501 H       1  UNL1        0.1449
     35 H         -11.8602  -15.5786   20.5664 H       1  UNL1        0.1449
@<TRIPOS>BOND
     1    31    32   am
     2    32    33    2
     3    21    32    1
     4    21    22    1
     5    22    23    1
     6    23    24    1
     7    24    25    1
     8    25    26    1
     9    25    27    1
    10    27    20    1
    11    20     1    1
    12     1     2    2
    13     1     3   am
    14     3     4    1
    15     4     5    1
    16     5     6    1
    17     6     8    1
    18     8    10    1
    19    10    11   ar
    20    11    12   ar
    21    12    13   ar
    22    13    14   ar
    23    14    16    1
    24    16    17    1
    25    16    18    1
    26    16    19    1
    27    14    15   ar
    28     6     7    1
    29    27    28    1
    30    28    29    1
    31    28    30    1
    32    26    21    1
    33     7     3    1
    34    30    21    1
    35    29    23    1
    36    15    10   ar
    37    31    34    1
    38    31    35    1
    39     8     9    1
@<TRIPOS>MOLECULE
*****
 35 39 0 0 0
SMALL
GASTEIGER

@<TRIPOS>ATOM
      1 C          -8.2917  -15.9704   23.9043 C.2     1  UNL1        0.4048
      2 O          -8.4761  -14.7529   24.7607 O.2     1  UNL1       -0.2262
      3 N          -6.9214  -16.5475   23.7062 N.am    1  UNL1       -0.2443
      4 C          -5.6482  -16.0189   24.2974 C.3     1  UNL1        0.0985
      5 C          -4.5236  -16.8992   23.8388 C.3     1  UNL1        0.0429
      6 C          -5.1017  -17.9719   22.9641 C.3     1  UNL1        0.0920
      7 C          -6.5836  -17.7545   22.8822 C.3     1  UNL1        0.1162
      8 N          -4.3330  -19.0693   22.2898 N.pl3   1  UNL1       -0.3180
      9 H          -4.3699  -19.9866   22.6456 H       1  UNL1        0.1482
     10 C          -3.5080  -18.7693   21.0735 C.ar    1  UNL1        0.1284
     11 C          -4.0998  -18.9381   19.7056 C.ar    1  UNL1        0.0341
     12 C          -3.2749  -18.6380   18.4893 C.ar    1  UNL1        0.0043
     13 C          -1.8582  -18.1691   18.6409 C.ar    1  UNL1        0.0232
     14 C          -1.2664  -18.0003   20.0089 C.ar    1  UNL1        0.1540
     15 N          -2.0914  -18.3004   21.2252 N.ar    1  UNL1       -0.2269
     16 C           0.1504  -17.5314   20.1605 C.3     1  UNL1        0.4349
     17 F           1.5671  -17.0625   20.3122 F       1  UNL1       -0.1644
     18 F          -0.3406  -16.1483   20.4702 F       1  UNL1       -0.1644
     19 F           0.6413  -18.9145   19.8509 F       1  UNL1       -0.1644
     20 O          -9.4775  -16.6108   23.2459 O.3     1  UNL1       -0.4383
     21 C          -9.9167  -17.6809   22.5596 C.3     1  UNL1        0.0688
     22 C         -10.1033  -18.7538   23.5912 C.3     1  UNL1        0.0086
     23 C         -10.5924  -20.1112   23.1813 C.3     1  UNL1        0.0007
     24 C         -10.8950  -20.3958   21.7400 C.3     1  UNL1        0.0036
     25 C         -10.7084  -19.3230   20.7085 C.3     1  UNL1        0.0407
     26 C         -10.2192  -17.9655   21.1183 C.3     1  UNL1        0.0122
     27 C          -9.8677  -18.0140   23.6048 C.3     1  UNL1        0.1702
     28 C          -9.8008  -18.4692   25.0325 C.3     1  UNL1        0.0407
     29 C         -10.2899  -19.8266   24.6227 C.3     1  UNL1        0.0036
     30 C          -9.6142  -17.3963   24.0010 C.3     1  UNL1        0.0122
     31 N          -8.6905  -15.4633   21.9860 N.am    1  UNL1       -0.3288
     32 C          -9.4275  -16.3234   22.9694 C.2     1  UNL1        0.2184
     33 O          -9.4968  -15.5309   24.2411 O.2     1  UNL1       -0.2754
     34 H          -8.3695  -14.5724   22.2550 H       1  UNL1        0.1449
     35 H          -8.5279  -15.7898   21.0716 H       1  UNL1        0.1449
@<TRIPOS>BOND
     1    31    32   am
     2    32    33    2
     3    21    32    1
     4    21    22    1
     5    22    23    1
     6    23    24    1
     7    24    25    1
     8    25    26    1
     9    25    27    1
    10    27    20    1
    11    20     1    1
    12     1     2    2
    13     1     3   am
    14     3     4    1
    15     4     5    1
    16     5     6    1
    17     6     8    1
    18     8    10    1
    19    10    11   ar
    20    11    12   ar
    21    12    13   ar
    22    13    14   ar
    23    14    16    1
    24    16    17    1
    25    16    18    1
    26    16    19    1
    27    14    15   ar
    28     6     7    1
    29    27    28    1
    30    28    29    1
    31    28    30    1
    32    26    21    1
    33     7     3    1
    34    30    21    1
    35    29    23    1
    36    15    10   ar
    37    31    34    1
    38    31    35    1
    39     8     9    1
