@<TRIPOS>MOLECULE
*****
 39 44 0 0 0
SMALL
GASTEIGER

@<TRIPOS>ATOM
      1 N           2.4841   -0.1563   30.3292 N.3     1  UNL1       -0.2676
      2 C           3.7546   -0.9028   30.6096 C.3     1  UNL1        0.0746
      3 C           4.5144   -0.6408   31.8761 C.3     1  UNL1        0.0449
      4 C           4.0037    0.3676   32.8621 C.3     1  UNL1        0.1391
      5 C           2.7333    1.1141   32.5817 C.3     1  UNL1        0.0449
      6 C           1.9735    0.8521   31.3152 C.3     1  UNL1        0.0746
      7 C           3.6184    1.3413   33.9361 C.2     1  UNL1        0.2529
      8 O           2.4057    2.2240   33.9322 O.2     1  UNL1       -0.2724
      9 N           4.6589    1.2774   35.0148 N.am    1  UNL1       -0.1907
     10 C           5.6873    0.2642   34.6074 C.2     1  UNL1        0.3219
     11 O           6.9064   -0.1194   35.3925 O.2     1  UNL1       -0.2512
     12 N           5.2824   -0.2981   33.2770 N.am    1  UNL1       -0.2222
     13 C           6.0255   -1.3426   32.4982 C.ar    1  UNL1        0.1453
     14 C           5.8412   -2.7948   32.8255 C.ar    1  UNL1        0.0922
     15 C           6.5844   -3.8393   32.0466 C.ar    1  UNL1        0.2259
     16 O           6.4002   -5.2915   32.3739 O.3     1  UNL1       -0.4919
     17 N           7.5119   -3.4317   30.9404 N.ar    1  UNL1       -0.1894
     18 C           7.6961   -1.9795   30.6131 C.ar    1  UNL1        0.2027
     19 N           6.9530   -0.9350   31.3920 N.ar    1  UNL1       -0.2084
     20 H           5.8208   -5.5462   33.0649 H       1  UNL1        0.2938
     21 C           4.6692    2.0849   36.2789 C.ar    1  UNL1        0.0623
     22 C           4.5742    1.3976   37.6087 C.ar    1  UNL1        0.0166
     23 C           4.5845    2.2051   38.8727 C.ar    1  UNL1        0.0162
     24 C           4.6898    3.6998   38.8070 C.ar    1  UNL1        0.0539
     25 C           4.7849    4.3872   37.4771 C.ar    1  UNL1        0.0162
     26 C           4.7746    3.5797   36.2130 C.ar    1  UNL1        0.0166
     27 N           4.7001    4.5073   40.0710 N.am    1  UNL1       -0.2581
     28 C           4.1723    5.8519   40.4750 C.3     1  UNL1        0.1078
     29 C           4.7147    5.6493   41.8586 C.3     1  UNL1        0.1074
     30 C           5.2427    4.3046   41.4547 C.2     1  UNL1        0.2311
     31 O           5.9996    3.2105   42.1475 O.2     1  UNL1       -0.2745
     32 C           1.7242   -0.4183   29.0627 C.3     1  UNL1        0.1183
     33 C          -1.2609   -0.4510   28.7658 C.3     1  UNL1        0.0323
     34 C          -0.4645    0.6924   28.2105 C.ar    1  UNL1       -0.0069
     35 C          -1.1606    1.8194   27.5067 C.ar    1  UNL1       -0.0015
     36 C          -0.3641    2.9627   26.9514 C.ar    1  UNL1        0.0203
     37 C           1.1284    2.9791   27.0998 C.ar    1  UNL1        0.0985
     38 N           1.8245    1.8521   27.8036 N.ar    1  UNL1       -0.2471
     39 C           1.0281    0.7087   28.3589 C.ar    1  UNL1        0.0712
@<TRIPOS>BOND
     1    33    34    1
     2    34    35   ar
     3    35    36   ar
     4    36    37   ar
     5    37    38   ar
     6    38    39   ar
     7    39    32    1
     8    32     1    1
     9     1     2    1
    10     2     3    1
    11     3     4    1
    12     4     5    1
    13     5     6    1
    14     4     7    1
    15     7     8    2
    16     7     9   am
    17     9    21    1
    18    21    22   ar
    19    22    23   ar
    20    23    24   ar
    21    24    27    1
    22    27    28    1
    23    28    29    1
    24    29    30    1
    25    30    31    2
    26    24    25   ar
    27    25    26   ar
    28     9    10   am
    29    10    11    2
    30    10    12   am
    31    12    13    1
    32    13    14   ar
    33    14    15   ar
    34    15    16    1
    35    15    17   ar
    36    17    18   ar
    37    18    19   ar
    38    39    34   ar
    39     6     1    1
    40    26    21   ar
    41    19    13   ar
    42    12     4    1
    43    30    27   am
    44    16    20    1
@<TRIPOS>MOLECULE
*****
 39 44 0 0 0
SMALL
GASTEIGER

@<TRIPOS>ATOM
      1 N           6.5774   -2.6570   23.8867 N.3     1  UNL1       -0.2676
      2 C           6.1531   -2.5491   22.4520 C.3     1  UNL1        0.0746
      3 C           4.9283   -1.7628   22.0893 C.3     1  UNL1        0.0449
      4 C           4.1278   -1.0845   23.1613 C.3     1  UNL1        0.1391
      5 C           4.5521   -1.1924   24.5959 C.3     1  UNL1        0.0449
      6 C           5.7769   -1.9786   24.9586 C.3     1  UNL1        0.0746
      7 C           3.2322   -0.3559   24.1189 C.2     1  UNL1        0.2529
      8 O           3.4041   -0.2856   25.6073 O.2     1  UNL1       -0.2724
      9 N           2.1343    0.2902   23.3266 N.am    1  UNL1       -0.1907
     10 C           2.3515   -0.0392   21.8794 C.2     1  UNL1        0.3219
     11 O           1.4884    0.4033   20.7353 O.2     1  UNL1       -0.2512
     12 N           3.5835   -0.8887   21.7772 N.am    1  UNL1       -0.2222
     13 C           4.1686   -1.4449   20.5130 C.ar    1  UNL1        0.1453
     14 C           3.8167   -2.8346   20.0716 C.ar    1  UNL1        0.0922
     15 C           4.4018   -3.3908   18.8073 C.ar    1  UNL1        0.2259
     16 O           4.0499   -4.7805   18.3660 O.3     1  UNL1       -0.4919
     17 N           5.3389   -2.5572   17.9844 N.ar    1  UNL1       -0.1894
     18 C           5.6908   -1.1675   18.4258 C.ar    1  UNL1        0.2027
     19 N           5.1057   -0.6114   19.6901 N.ar    1  UNL1       -0.2084
     20 H           3.4645   -5.3012   18.8800 H       1  UNL1        0.2938
     21 C           1.0158    1.1199   23.8838 C.ar    1  UNL1        0.0623
     22 C           0.3834    2.1884   23.0422 C.ar    1  UNL1        0.0166
     23 C          -0.7351    3.0181   23.5994 C.ar    1  UNL1        0.0162
     24 C          -1.2213    2.7792   24.9981 C.ar    1  UNL1        0.0539
     25 C          -0.5889    1.7107   25.8397 C.ar    1  UNL1        0.0162
     26 C           0.5297    0.8810   25.2826 C.ar    1  UNL1        0.0166
     27 N          -2.3398    3.6089   25.5553 N.am    1  UNL1       -0.2581
     28 C          -2.4708    4.5977   26.6756 C.3     1  UNL1        0.1078
     29 C          -3.9217    4.7823   26.3432 C.3     1  UNL1        0.1074
     30 C          -3.7909    3.7935   25.2229 C.2     1  UNL1        0.2311
     31 O          -4.7244    3.2248   24.1956 O.2     1  UNL1       -0.2745
     32 C           7.8023   -3.4433   24.2495 C.3     1  UNL1        0.1183
     33 C           8.8695   -5.7577   22.6669 C.3     1  UNL1        0.0323
     34 C           8.2008   -5.9973   23.9880 C.ar    1  UNL1       -0.0069
     35 C           8.0658   -7.3940   24.5179 C.ar    1  UNL1       -0.0015
     36 C           7.3971   -7.6336   25.8390 C.ar    1  UNL1        0.0203
     37 C           6.8635   -6.4765   26.6303 C.ar    1  UNL1        0.0985
     38 N           6.9985   -5.0796   26.1005 N.ar    1  UNL1       -0.2471
     39 C           7.6672   -4.8400   24.7793 C.ar    1  UNL1        0.0712
@<TRIPOS>BOND
     1    33    34    1
     2    34    35   ar
     3    35    36   ar
     4    36    37   ar
     5    37    38   ar
     6    38    39   ar
     7    39    32    1
     8    32     1    1
     9     1     2    1
    10     2     3    1
    11     3     4    1
    12     4     5    1
    13     5     6    1
    14     4     7    1
    15     7     8    2
    16     7     9   am
    17     9    21    1
    18    21    22   ar
    19    22    23   ar
    20    23    24   ar
    21    24    27    1
    22    27    28    1
    23    28    29    1
    24    29    30    1
    25    30    31    2
    26    24    25   ar
    27    25    26   ar
    28     9    10   am
    29    10    11    2
    30    10    12   am
    31    12    13    1
    32    13    14   ar
    33    14    15   ar
    34    15    16    1
    35    15    17   ar
    36    17    18   ar
    37    18    19   ar
    38    39    34   ar
    39     6     1    1
    40    26    21   ar
    41    19    13   ar
    42    12     4    1
    43    30    27   am
    44    16    20    1
@<TRIPOS>MOLECULE
*****
 39 44 0 0 0
SMALL
GASTEIGER

@<TRIPOS>ATOM
      1 N           2.3356   -0.2925   21.9395 N.3     1  UNL1       -0.2676
      2 C           3.1117   -1.2038   21.0355 C.3     1  UNL1        0.0746
      3 C           4.1570   -2.1150   21.6072 C.3     1  UNL1        0.0449
      4 C           4.4262   -2.1150   23.0829 C.3     1  UNL1        0.1391
      5 C           3.6501   -1.2038   23.9868 C.3     1  UNL1        0.0449
      6 C           2.6048   -0.2925   23.4152 C.3     1  UNL1        0.0746
      7 C           4.8039   -2.2250   24.5304 C.2     1  UNL1        0.2529
      8 O           4.2025   -1.4431   25.6604 O.2     1  UNL1       -0.2724
      9 N           5.8886   -3.2544   24.6495 N.am    1  UNL1       -0.1907
     10 C           6.1813   -3.7805   23.2756 C.2     1  UNL1        0.3219
     11 O           7.1989   -4.8269   22.9305 O.2     1  UNL1       -0.2512
     12 N           5.2775   -3.0764   22.3074 N.am    1  UNL1       -0.2222
     13 C           5.2328   -3.2951   20.8241 C.ar    1  UNL1        0.1453
     14 C           6.1037   -2.4757   19.9185 C.ar    1  UNL1        0.0922
     15 C           6.0589   -2.6945   18.4353 C.ar    1  UNL1        0.2259
     16 O           6.9299   -1.8751   17.5297 O.3     1  UNL1       -0.4919
     17 N           5.1432   -3.7327   17.8575 N.ar    1  UNL1       -0.1894
     18 C           4.2723   -4.5520   18.7631 C.ar    1  UNL1        0.2027
     19 N           4.3171   -4.3332   20.2463 N.ar    1  UNL1       -0.2084
     20 H           7.5019   -1.2266   17.8905 H       1  UNL1        0.2938
     21 C           6.5623   -3.6824   25.9195 C.ar    1  UNL1        0.0623
     22 C           7.1712   -2.6560   26.8282 C.ar    1  UNL1        0.0166
     23 C           7.8449   -3.0840   28.0982 C.ar    1  UNL1        0.0162
     24 C           7.9096   -4.5384   28.4596 C.ar    1  UNL1        0.0539
     25 C           7.3006   -5.5647   27.5509 C.ar    1  UNL1        0.0162
     26 C           6.6270   -5.1367   26.2809 C.ar    1  UNL1        0.0166
     27 N           8.5833   -4.9664   29.7296 N.am    1  UNL1       -0.2581
     28 C           9.5315   -6.0648   30.1092 C.3     1  UNL1        0.1078
     29 C           9.5360   -5.5716   31.5257 C.3     1  UNL1        0.1074
     30 C           8.5877   -4.4731   31.1462 C.2     1  UNL1        0.2311
     31 O           7.9204   -3.3475   31.8795 O.2     1  UNL1       -0.2745
     32 C           1.2902    0.6188   21.3679 C.3     1  UNL1        0.1183
     33 C           1.3120    0.6755   18.3685 C.3     1  UNL1        0.0323
     34 C           1.7093    1.8961   19.1446 C.ar    1  UNL1       -0.0069
     35 C           2.1176    3.1450   18.4210 C.ar    1  UNL1       -0.0015
     36 C           2.5149    4.3656   19.1972 C.ar    1  UNL1        0.0203
     37 C           2.5040    4.3372   20.6968 C.ar    1  UNL1        0.0985
     38 N           2.0957    3.0883   21.4204 N.ar    1  UNL1       -0.2471
     39 C           1.6984    1.8677   20.6443 C.ar    1  UNL1        0.0712
@<TRIPOS>BOND
     1    33    34    1
     2    34    35   ar
     3    35    36   ar
     4    36    37   ar
     5    37    38   ar
     6    38    39   ar
     7    39    32    1
     8    32     1    1
     9     1     2    1
    10     2     3    1
    11     3     4    1
    12     4     5    1
    13     5     6    1
    14     4     7    1
    15     7     8    2
    16     7     9   am
    17     9    21    1
    18    21    22   ar
    19    22    23   ar
    20    23    24   ar
    21    24    27    1
    22    27    28    1
    23    28    29    1
    24    29    30    1
    25    30    31    2
    26    24    25   ar
    27    25    26   ar
    28     9    10   am
    29    10    11    2
    30    10    12   am
    31    12    13    1
    32    13    14   ar
    33    14    15   ar
    34    15    16    1
    35    15    17   ar
    36    17    18   ar
    37    18    19   ar
    38    39    34   ar
    39     6     1    1
    40    26    21   ar
    41    19    13   ar
    42    12     4    1
    43    30    27   am
    44    16    20    1
@<TRIPOS>MOLECULE
*****
 39 44 0 0 0
SMALL
GASTEIGER

@<TRIPOS>ATOM
      1 N           3.4470   -0.3517   29.9179 N.3     1  UNL1       -0.2676
      2 C           4.6395   -1.2587   29.8451 C.3     1  UNL1        0.0746
      3 C           5.1759   -1.6867   28.5113 C.3     1  UNL1        0.0449
      4 C           4.5198   -1.2078   27.2503 C.3     1  UNL1        0.1391
      5 C           3.3273   -0.3009   27.3231 C.3     1  UNL1        0.0449
      6 C           2.7909    0.1271   28.6569 C.3     1  UNL1        0.0746
      7 C           3.9715   -0.8121   25.9113 C.2     1  UNL1        0.2529
      8 O           2.7907    0.0811   25.6710 O.2     1  UNL1       -0.2724
      9 N           4.8115   -1.4665   24.8547 N.am    1  UNL1       -0.1907
     10 C           5.8789   -2.2667   25.5407 C.2     1  UNL1        0.3219
     11 O           6.9402   -3.0833   24.8649 O.2     1  UNL1       -0.2512
     12 N           5.6986   -2.1068   27.0212 N.am    1  UNL1       -0.2222
     13 C           6.5479   -2.7354   28.0859 C.ar    1  UNL1        0.1453
     14 C           6.2277   -4.1135   28.5843 C.ar    1  UNL1        0.0922
     15 C           7.0771   -4.7421   29.6489 C.ar    1  UNL1        0.2259
     16 O           6.7570   -6.1201   30.1474 O.3     1  UNL1       -0.4919
     17 N           8.2466   -3.9926   30.2152 N.ar    1  UNL1       -0.1894
     18 C           8.5667   -2.6146   29.7168 C.ar    1  UNL1        0.2027
     19 N           7.7174   -1.9860   28.6521 N.ar    1  UNL1       -0.2084
     20 H           6.0264   -6.5883   29.7937 H       1  UNL1        0.2938
     21 C           4.6181   -1.3426   23.3724 C.ar    1  UNL1        0.0623
     22 C           4.7486   -0.0040   22.7084 C.ar    1  UNL1        0.0166
     23 C           4.5552    0.1200   21.2261 C.ar    1  UNL1        0.0162
     24 C           4.2313   -1.0946   20.4078 C.ar    1  UNL1        0.0539
     25 C           4.1008   -2.4333   21.0718 C.ar    1  UNL1        0.0162
     26 C           4.2942   -2.5573   22.5541 C.ar    1  UNL1        0.0166
     27 N           4.0379   -0.9706   18.9255 N.am    1  UNL1       -0.2581
     28 C           3.1151   -0.1893   18.0380 C.3     1  UNL1        0.1078
     29 C           3.7644   -0.7953   16.8293 C.3     1  UNL1        0.1074
     30 C           4.6873   -1.5767   17.7168 C.2     1  UNL1        0.2311
     31 O           5.7991   -2.5577   17.4897 O.2     1  UNL1       -0.2745
     32 C           2.9106    0.0764   31.2517 C.3     1  UNL1        0.1183
     33 C           4.6884    2.3887   31.9539 C.3     1  UNL1        0.0323
     34 C           4.6736    1.1639   32.8198 C.ar    1  UNL1       -0.0069
     35 C           5.5478    1.0954   34.0368 C.ar    1  UNL1       -0.0015
     36 C           5.5331   -0.1293   34.9028 C.ar    1  UNL1        0.0203
     37 C           4.6442   -1.2855   34.5517 C.ar    1  UNL1        0.0985
     38 N           3.7700   -1.2169   33.3347 N.ar    1  UNL1       -0.2471
     39 C           3.7847    0.0078   32.4687 C.ar    1  UNL1        0.0712
@<TRIPOS>BOND
     1    33    34    1
     2    34    35   ar
     3    35    36   ar
     4    36    37   ar
     5    37    38   ar
     6    38    39   ar
     7    39    32    1
     8    32     1    1
     9     1     2    1
    10     2     3    1
    11     3     4    1
    12     4     5    1
    13     5     6    1
    14     4     7    1
    15     7     8    2
    16     7     9   am
    17     9    21    1
    18    21    22   ar
    19    22    23   ar
    20    23    24   ar
    21    24    27    1
    22    27    28    1
    23    28    29    1
    24    29    30    1
    25    30    31    2
    26    24    25   ar
    27    25    26   ar
    28     9    10   am
    29    10    11    2
    30    10    12   am
    31    12    13    1
    32    13    14   ar
    33    14    15   ar
    34    15    16    1
    35    15    17   ar
    36    17    18   ar
    37    18    19   ar
    38    39    34   ar
    39     6     1    1
    40    26    21   ar
    41    19    13   ar
    42    12     4    1
    43    30    27   am
    44    16    20    1
@<TRIPOS>MOLECULE
*****
 39 44 0 0 0
SMALL
GASTEIGER

@<TRIPOS>ATOM
      1 N          -3.0715    3.9150   20.6695 N.3     1  UNL1       -0.2676
      2 C          -4.1983    4.4168   21.5229 C.3     1  UNL1        0.0746
      3 C          -4.0791    4.3839   23.0178 C.3     1  UNL1        0.0449
      4 C          -2.8330    3.8493   23.6592 C.3     1  UNL1        0.1391
      5 C          -1.7062    3.3474   22.8058 C.3     1  UNL1        0.0449
      6 C          -1.8254    3.3803   21.3109 C.3     1  UNL1        0.0746
      7 C          -1.6546    3.3458   24.4389 C.2     1  UNL1        0.2529
      8 O          -0.3885    2.7868   23.8605 O.2     1  UNL1       -0.2724
      9 N          -1.9645    3.4995   25.8985 N.am    1  UNL1       -0.1907
     10 C          -3.3346    4.0980   26.0209 C.2     1  UNL1        0.3219
     11 O          -4.0434    4.4231   27.3022 O.2     1  UNL1       -0.2512
     12 N          -3.8713    4.3141   24.6370 N.am    1  UNL1       -0.2222
     13 C          -5.2111    4.8934   24.2914 C.ar    1  UNL1        0.1453
     14 C          -6.3939    3.9897   24.1067 C.ar    1  UNL1        0.0922
     15 C          -7.7336    4.5690   23.7612 C.ar    1  UNL1        0.2259
     16 O          -8.9165    3.6653   23.5765 O.3     1  UNL1       -0.4919
     17 N          -7.8906    6.0521   23.6002 N.ar    1  UNL1       -0.1894
     18 C          -6.7077    6.9558   23.7849 C.ar    1  UNL1        0.2027
     19 N          -5.3680    6.3765   24.1305 N.ar    1  UNL1       -0.2084
     20 H          -8.8185    2.7389   23.6770 H       1  UNL1        0.2938
     21 C          -1.0628    3.1212   27.0359 C.ar    1  UNL1        0.0623
     22 C          -0.1261    4.1366   27.6201 C.ar    1  UNL1        0.0166
     23 C           0.7756    3.7583   28.7575 C.ar    1  UNL1        0.0162
     24 C           0.7406    2.3646   29.3108 C.ar    1  UNL1        0.0539
     25 C          -0.1962    1.3491   28.7266 C.ar    1  UNL1        0.0162
     26 C          -1.0979    1.7274   27.5892 C.ar    1  UNL1        0.0166
     27 N           1.6423    1.9863   30.4482 N.am    1  UNL1       -0.2581
     28 C           2.3452    2.7376   31.5396 C.3     1  UNL1        0.1078
     29 C           2.9175    1.4512   32.0568 C.3     1  UNL1        0.1074
     30 C           2.2146    0.6997   30.9654 C.2     1  UNL1        0.2311
     31 O           2.1222   -0.7413   30.5593 O.2     1  UNL1       -0.2745
     32 C          -3.1907    3.9478   19.1745 C.3     1  UNL1        0.1183
     33 C          -6.0569    3.2306   18.6545 C.3     1  UNL1        0.0323
     34 C          -5.5375    4.5803   18.2565 C.ar    1  UNL1       -0.0069
     35 C          -6.4511    5.5714   17.5986 C.ar    1  UNL1       -0.0015
     36 C          -5.9316    6.9212   17.2007 C.ar    1  UNL1        0.0203
     37 C          -4.4985    7.2798   17.4607 C.ar    1  UNL1        0.0985
     38 N          -3.5848    6.2887   18.1187 N.ar    1  UNL1       -0.2471
     39 C          -4.1043    4.9389   18.5166 C.ar    1  UNL1        0.0712
@<TRIPOS>BOND
     1    33    34    1
     2    34    35   ar
     3    35    36   ar
     4    36    37   ar
     5    37    38   ar
     6    38    39   ar
     7    39    32    1
     8    32     1    1
     9     1     2    1
    10     2     3    1
    11     3     4    1
    12     4     5    1
    13     5     6    1
    14     4     7    1
    15     7     8    2
    16     7     9   am
    17     9    21    1
    18    21    22   ar
    19    22    23   ar
    20    23    24   ar
    21    24    27    1
    22    27    28    1
    23    28    29    1
    24    29    30    1
    25    30    31    2
    26    24    25   ar
    27    25    26   ar
    28     9    10   am
    29    10    11    2
    30    10    12   am
    31    12    13    1
    32    13    14   ar
    33    14    15   ar
    34    15    16    1
    35    15    17   ar
    36    17    18   ar
    37    18    19   ar
    38    39    34   ar
    39     6     1    1
    40    26    21   ar
    41    19    13   ar
    42    12     4    1
    43    30    27   am
    44    16    20    1
@<TRIPOS>MOLECULE
*****
 39 44 0 0 0
SMALL
GASTEIGER

@<TRIPOS>ATOM
      1 N           6.6157   -2.8512   23.9433 N.3     1  UNL1       -0.2676
      2 C           6.1404   -2.9945   22.5278 C.3     1  UNL1        0.0746
      3 C           4.9265   -2.2449   22.0649 C.3     1  UNL1        0.0449
      4 C           4.1878   -1.3520   23.0173 C.3     1  UNL1        0.1391
      5 C           4.6631   -1.2087   24.4328 C.3     1  UNL1        0.0449
      6 C           5.8771   -1.9583   24.8957 C.3     1  UNL1        0.0746
      7 C           3.3513   -0.4274   23.8512 C.2     1  UNL1        0.2529
      8 O           3.5818   -0.0901   25.2945 O.2     1  UNL1       -0.2724
      9 N           2.2436    0.1007   22.9883 N.am    1  UNL1       -0.1907
     10 C           2.3957   -0.4976   21.6212 C.2     1  UNL1        0.3219
     11 O           1.5030   -0.2427   20.4431 O.2     1  UNL1       -0.2512
     12 N           3.5972   -1.3953   21.6391 N.am    1  UNL1       -0.2222
     13 C           4.1170   -2.1959   20.4820 C.ar    1  UNL1        0.1453
     14 C           5.0888   -1.5796   19.5198 C.ar    1  UNL1        0.0922
     15 C           5.6085   -2.3803   18.3628 C.ar    1  UNL1        0.2259
     16 O           6.5803   -1.7640   17.4006 O.3     1  UNL1       -0.4919
     17 N           5.1565   -3.7973   18.1678 N.ar    1  UNL1       -0.1894
     18 C           4.1847   -4.4135   19.1300 C.ar    1  UNL1        0.2027
     19 N           3.6650   -3.6129   20.2871 N.ar    1  UNL1       -0.2084
     20 H           6.8627   -0.8789   17.5223 H       1  UNL1        0.2938
     21 C           1.1722    1.0587   23.4173 C.ar    1  UNL1        0.0623
     22 C           0.5732    0.9493   24.7881 C.ar    1  UNL1        0.0166
     23 C          -0.4983    1.9073   25.2171 C.ar    1  UNL1        0.0162
     24 C          -0.9708    2.9749   24.2753 C.ar    1  UNL1        0.0539
     25 C          -0.3717    3.0844   22.9045 C.ar    1  UNL1        0.0162
     26 C           0.6997    2.1263   22.4755 C.ar    1  UNL1        0.0166
     27 N          -2.0422    3.9329   24.7043 N.am    1  UNL1       -0.2581
     28 C          -2.0611    5.2571   25.4086 C.3     1  UNL1        0.1078
     29 C          -3.5575    5.2878   25.3110 C.3     1  UNL1        0.1074
     30 C          -3.5388    3.9636   24.6066 C.2     1  UNL1        0.2311
     31 O          -4.5837    3.0489   24.0395 O.2     1  UNL1       -0.2745
     32 C           7.8297   -3.6008   24.4063 C.3     1  UNL1        0.1183
     33 C           8.9471   -5.8851   22.8145 C.3     1  UNL1        0.0323
     34 C           8.2539   -6.1479   24.1185 C.ar    1  UNL1       -0.0069
     35 C           8.1193   -7.5527   24.6266 C.ar    1  UNL1       -0.0015
     36 C           7.4260   -7.8155   25.9306 C.ar    1  UNL1        0.0203
     37 C           6.8674   -6.6734   26.7265 C.ar    1  UNL1        0.0985
     38 N           7.0019   -5.2685   26.2184 N.ar    1  UNL1       -0.2471
     39 C           7.6952   -5.0057   24.9144 C.ar    1  UNL1        0.0712
@<TRIPOS>BOND
     1    33    34    1
     2    34    35   ar
     3    35    36   ar
     4    36    37   ar
     5    37    38   ar
     6    38    39   ar
     7    39    32    1
     8    32     1    1
     9     1     2    1
    10     2     3    1
    11     3     4    1
    12     4     5    1
    13     5     6    1
    14     4     7    1
    15     7     8    2
    16     7     9   am
    17     9    21    1
    18    21    22   ar
    19    22    23   ar
    20    23    24   ar
    21    24    27    1
    22    27    28    1
    23    28    29    1
    24    29    30    1
    25    30    31    2
    26    24    25   ar
    27    25    26   ar
    28     9    10   am
    29    10    11    2
    30    10    12   am
    31    12    13    1
    32    13    14   ar
    33    14    15   ar
    34    15    16    1
    35    15    17   ar
    36    17    18   ar
    37    18    19   ar
    38    39    34   ar
    39     6     1    1
    40    26    21   ar
    41    19    13   ar
    42    12     4    1
    43    30    27   am
    44    16    20    1
@<TRIPOS>MOLECULE
*****
 39 44 0 0 0
SMALL
GASTEIGER

@<TRIPOS>ATOM
      1 N           3.0018   -1.0136   21.6668 N.3     1  UNL1       -0.2676
      2 C           2.7102   -0.2434   22.9204 C.3     1  UNL1        0.0746
      3 C           1.6392    0.8068   22.9234 C.3     1  UNL1        0.0449
      4 C           0.8598    1.0867   21.6727 C.3     1  UNL1        0.1391
      5 C           1.1515    0.3165   20.4191 C.3     1  UNL1        0.0449
      6 C           2.2225   -0.7336   20.4161 C.3     1  UNL1        0.0746
      7 C           0.0025    1.4750   20.5047 C.2     1  UNL1        0.2529
      8 O           0.0657    0.8813   19.1287 O.2     1  UNL1       -0.2724
      9 N          -0.9292    2.5614   20.9543 N.am    1  UNL1       -0.1907
     10 C          -0.6476    2.8444   22.4003 C.2     1  UNL1        0.3219
     11 O          -1.3485    3.8603   23.2525 O.2     1  UNL1       -0.2512
     12 N           0.4580    1.9331   22.8442 N.am    1  UNL1       -0.2222
     13 C           1.0568    1.8777   24.2184 C.ar    1  UNL1        0.1453
     14 C           0.3918    1.0716   25.2944 C.ar    1  UNL1        0.0922
     15 C           0.9906    1.0162   26.6686 C.ar    1  UNL1        0.2259
     16 O           0.3256    0.2101   27.7446 O.3     1  UNL1       -0.4919
     17 N           2.2545    1.7671   26.9668 N.ar    1  UNL1       -0.1894
     18 C           2.9195    2.5732   25.8908 C.ar    1  UNL1        0.2027
     19 N           2.3207    2.6285   24.5166 N.ar    1  UNL1       -0.2084
     20 H          -0.4639   -0.2589   27.5584 H       1  UNL1        0.2938
     21 C          -1.9611    3.2446   20.1069 C.ar    1  UNL1        0.0623
     22 C          -1.5490    3.9614   18.8554 C.ar    1  UNL1        0.0166
     23 C          -2.5809    4.6447   18.0080 C.ar    1  UNL1        0.0162
     24 C          -4.0250    4.6111   18.4120 C.ar    1  UNL1        0.0539
     25 C          -4.4372    3.8943   19.6635 C.ar    1  UNL1        0.0162
     26 C          -3.4053    3.2110   20.5109 C.ar    1  UNL1        0.0166
     27 N          -5.0570    5.2944   17.5645 N.am    1  UNL1       -0.2581
     28 C          -5.0186    6.2869   16.4406 C.3     1  UNL1        0.1078
     29 C          -6.5164    6.2606   16.3660 C.3     1  UNL1        0.1074
     30 C          -6.5550    5.2680   17.4900 C.2     1  UNL1        0.2311
     31 O          -7.6413    4.5475   18.2320 O.2     1  UNL1       -0.2745
     32 C           4.0729   -2.0638   21.6638 C.3     1  UNL1        0.1183
     33 C           3.5367   -3.9315   19.3781 C.3     1  UNL1        0.0323
     34 C           4.7715   -3.0798   19.3769 C.ar    1  UNL1       -0.0069
     35 C           5.7381   -3.1619   18.2329 C.ar    1  UNL1       -0.0015
     36 C           6.9729   -2.3102   18.2318 C.ar    1  UNL1        0.0203
     37 C           7.2410   -1.3764   19.3746 C.ar    1  UNL1        0.0985
     38 N           6.2743   -1.2943   20.5187 N.ar    1  UNL1       -0.2471
     39 C           5.0395   -2.1459   20.5198 C.ar    1  UNL1        0.0712
@<TRIPOS>BOND
     1    33    34    1
     2    34    35   ar
     3    35    36   ar
     4    36    37   ar
     5    37    38   ar
     6    38    39   ar
     7    39    32    1
     8    32     1    1
     9     1     2    1
    10     2     3    1
    11     3     4    1
    12     4     5    1
    13     5     6    1
    14     4     7    1
    15     7     8    2
    16     7     9   am
    17     9    21    1
    18    21    22   ar
    19    22    23   ar
    20    23    24   ar
    21    24    27    1
    22    27    28    1
    23    28    29    1
    24    29    30    1
    25    30    31    2
    26    24    25   ar
    27    25    26   ar
    28     9    10   am
    29    10    11    2
    30    10    12   am
    31    12    13    1
    32    13    14   ar
    33    14    15   ar
    34    15    16    1
    35    15    17   ar
    36    17    18   ar
    37    18    19   ar
    38    39    34   ar
    39     6     1    1
    40    26    21   ar
    41    19    13   ar
    42    12     4    1
    43    30    27   am
    44    16    20    1
@<TRIPOS>MOLECULE
*****
 39 44 0 0 0
SMALL
GASTEIGER

@<TRIPOS>ATOM
      1 N           6.4877   -2.5258   23.3637 N.3     1  UNL1       -0.2676
      2 C           7.0119   -3.6470   24.2111 C.3     1  UNL1        0.0746
      3 C           6.8200   -3.6159   25.6984 C.3     1  UNL1        0.0449
      4 C           6.1038   -2.4637   26.3383 C.3     1  UNL1        0.1391
      5 C           5.5796   -1.3425   25.4909 C.3     1  UNL1        0.0449
      6 C           5.7715   -1.3736   24.0036 C.3     1  UNL1        0.0746
      7 C           5.4117   -1.3835   27.1157 C.2     1  UNL1        0.2529
      8 O           4.7899   -0.1448   26.5421 O.2     1  UNL1       -0.2724
      9 N           5.4505   -1.7596   28.5673 N.am    1  UNL1       -0.1907
     10 C           6.1666   -3.0722   28.6871 C.2     1  UNL1        0.3219
     11 O           6.4322   -3.8185   29.9608 O.2     1  UNL1       -0.2512
     12 N           6.5704   -3.5073   27.3096 N.am    1  UNL1       -0.2222
     13 C           7.3107   -4.7652   26.9639 C.ar    1  UNL1        0.1453
     14 C           6.5667   -6.0608   26.8304 C.ar    1  UNL1        0.0922
     15 C           7.3072   -7.3187   26.4846 C.ar    1  UNL1        0.2259
     16 O           6.5632   -8.6143   26.3511 O.3     1  UNL1       -0.4919
     17 N           8.7916   -7.2810   26.2724 N.ar    1  UNL1       -0.1894
     18 C           9.5356   -5.9854   26.4060 C.ar    1  UNL1        0.2027
     19 N           8.7952   -4.7275   26.7517 N.ar    1  UNL1       -0.2084
     20 H           5.6359   -8.6378   26.4836 H       1  UNL1        0.2938
     21 C           4.8743   -0.9629   29.7002 C.ar    1  UNL1        0.0623
     22 C           3.3971   -0.7110   29.7647 C.ar    1  UNL1        0.0166
     23 C           2.8209    0.0857   30.8976 C.ar    1  UNL1        0.0162
     24 C           3.7219    0.6304   31.9659 C.ar    1  UNL1        0.0539
     25 C           5.1992    0.3784   31.9013 C.ar    1  UNL1        0.0162
     26 C           5.7754   -0.4182   30.7685 C.ar    1  UNL1        0.0166
     27 N           3.1458    1.4270   33.0987 N.am    1  UNL1       -0.2581
     28 C           3.5096    1.6404   34.5381 C.3     1  UNL1        0.1078
     29 C           2.3309    2.5536   34.7008 C.3     1  UNL1        0.1074
     30 C           1.9670    2.3403   33.2613 C.2     1  UNL1        0.2311
     31 O           0.8762    2.8352   32.3585 O.2     1  UNL1       -0.2745
     32 C           6.6796   -2.5569   21.8763 C.3     1  UNL1        0.1183
     33 C           5.1283   -0.4269   20.4422 C.3     1  UNL1        0.0323
     34 C           4.7619   -1.8704   20.2634 C.ar    1  UNL1       -0.0069
     35 C           3.6199   -2.2490   19.3676 C.ar    1  UNL1       -0.0015
     36 C           3.2535   -3.6925   19.1888 C.ar    1  UNL1        0.0203
     37 C           4.0291   -4.7575   19.9059 C.ar    1  UNL1        0.0985
     38 N           5.1712   -4.3790   20.8017 N.ar    1  UNL1       -0.2471
     39 C           5.5376   -2.9354   20.9805 C.ar    1  UNL1        0.0712
@<TRIPOS>BOND
     1    33    34    1
     2    34    35   ar
     3    35    36   ar
     4    36    37   ar
     5    37    38   ar
     6    38    39   ar
     7    39    32    1
     8    32     1    1
     9     1     2    1
    10     2     3    1
    11     3     4    1
    12     4     5    1
    13     5     6    1
    14     4     7    1
    15     7     8    2
    16     7     9   am
    17     9    21    1
    18    21    22   ar
    19    22    23   ar
    20    23    24   ar
    21    24    27    1
    22    27    28    1
    23    28    29    1
    24    29    30    1
    25    30    31    2
    26    24    25   ar
    27    25    26   ar
    28     9    10   am
    29    10    11    2
    30    10    12   am
    31    12    13    1
    32    13    14   ar
    33    14    15   ar
    34    15    16    1
    35    15    17   ar
    36    17    18   ar
    37    18    19   ar
    38    39    34   ar
    39     6     1    1
    40    26    21   ar
    41    19    13   ar
    42    12     4    1
    43    30    27   am
    44    16    20    1
@<TRIPOS>MOLECULE
*****
 39 44 0 0 0
SMALL
GASTEIGER

@<TRIPOS>ATOM
      1 N           2.6953   -0.4938   21.1406 N.3     1  UNL1       -0.2676
      2 C           1.9909    0.7828   21.4925 C.3     1  UNL1        0.0746
      3 C           1.8964    1.2169   22.9252 C.3     1  UNL1        0.0449
      4 C           2.5064    0.3744   24.0059 C.3     1  UNL1        0.1391
      5 C           3.2108   -0.9023   23.6540 C.3     1  UNL1        0.0449
      6 C           3.3052   -1.3364   22.2214 C.3     1  UNL1        0.0746
      7 C           3.0648   -0.3603   25.1885 C.2     1  UNL1        0.2529
      8 O           3.8157   -1.6581   25.1460 O.2     1  UNL1       -0.2724
      9 N           2.7404    0.4307   26.4211 N.am    1  UNL1       -0.1907
     10 C           1.9815    1.6543   26.0003 C.2     1  UNL1        0.3219
     11 O           1.4590    2.7246   26.9119 O.2     1  UNL1       -0.2512
     12 N           1.8369    1.6195   24.5077 N.am    1  UNL1       -0.2222
     13 C           1.1444    2.6489   23.6647 C.ar    1  UNL1        0.1453
     14 C          -0.3332    2.5516   23.4251 C.ar    1  UNL1        0.0922
     15 C          -1.0256    3.5812   22.5821 C.ar    1  UNL1        0.2259
     16 O          -2.5031    3.4839   22.3424 O.3     1  UNL1       -0.4919
     17 N          -0.2405    4.7080   21.9787 N.ar    1  UNL1       -0.1894
     18 C           1.2370    4.8053   22.2184 C.ar    1  UNL1        0.2027
     19 N           1.9294    3.7758   23.0613 N.ar    1  UNL1       -0.2084
     20 H          -2.9935    2.7800   22.7193 H       1  UNL1        0.2938
     21 C           3.1100    0.0627   27.8275 C.ar    1  UNL1        0.0623
     22 C           2.0366   -0.2436   28.8293 C.ar    1  UNL1        0.0166
     23 C           2.4062   -0.6116   30.2357 C.ar    1  UNL1        0.0162
     24 C           3.8492   -0.6732   30.6403 C.ar    1  UNL1        0.0539
     25 C           4.9227   -0.3668   29.6384 C.ar    1  UNL1        0.0162
     26 C           4.5531    0.0011   28.2320 C.ar    1  UNL1        0.0166
     27 N           4.2188   -1.0411   32.0467 N.am    1  UNL1       -0.2581
     28 C           3.8837   -0.5041   33.4065 C.3     1  UNL1        0.1078
     29 C           4.7416   -1.5615   34.0356 C.3     1  UNL1        0.1074
     30 C           5.0768   -2.0987   32.6758 C.2     1  UNL1        0.2311
     31 O           5.9204   -3.2262   32.1591 O.2     1  UNL1       -0.2745
     32 C           2.7898   -0.9280   19.7079 C.3     1  UNL1        0.1183
     33 C           3.3602   -3.8353   19.2360 C.3     1  UNL1        0.0323
     34 C           4.3966   -2.8037   18.9018 C.ar    1  UNL1       -0.0069
     35 C           5.7182   -3.2258   18.3316 C.ar    1  UNL1       -0.0015
     36 C           6.7547   -2.1943   17.9973 C.ar    1  UNL1        0.0203
     37 C           6.4695   -0.7407   18.2332 C.ar    1  UNL1        0.0985
     38 N           5.1479   -0.3186   18.8034 N.ar    1  UNL1       -0.2471
     39 C           4.1114   -1.3501   19.1377 C.ar    1  UNL1        0.0712
@<TRIPOS>BOND
     1    33    34    1
     2    34    35   ar
     3    35    36   ar
     4    36    37   ar
     5    37    38   ar
     6    38    39   ar
     7    39    32    1
     8    32     1    1
     9     1     2    1
    10     2     3    1
    11     3     4    1
    12     4     5    1
    13     5     6    1
    14     4     7    1
    15     7     8    2
    16     7     9   am
    17     9    21    1
    18    21    22   ar
    19    22    23   ar
    20    23    24   ar
    21    24    27    1
    22    27    28    1
    23    28    29    1
    24    29    30    1
    25    30    31    2
    26    24    25   ar
    27    25    26   ar
    28     9    10   am
    29    10    11    2
    30    10    12   am
    31    12    13    1
    32    13    14   ar
    33    14    15   ar
    34    15    16    1
    35    15    17   ar
    36    17    18   ar
    37    18    19   ar
    38    39    34   ar
    39     6     1    1
    40    26    21   ar
    41    19    13   ar
    42    12     4    1
    43    30    27   am
    44    16    20    1
