@<TRIPOS>MOLECULE
*****
 21 22 0 0 0
SMALL
GASTEIGER

@<TRIPOS>ATOM
      1 C          -9.8631  -17.9787   22.4976 C.ar    1  UNL1        0.0448
      2 C         -10.3843  -19.3852   22.4947 C.ar    1  UNL1        0.0257
      3 C         -10.4359  -20.1685   23.7729 C.ar    1  UNL1        0.0971
      4 N          -9.9664  -19.5454   25.0539 N.ar    1  UNL1       -0.2440
      5 C          -9.4451  -18.1388   25.0568 C.ar    1  UNL1        0.0833
      6 C          -8.9756  -17.5156   26.3379 C.ar    1  UNL1        0.0305
      7 C          -8.4544  -16.1091   26.3408 C.ar    1  UNL1        0.0592
      8 CL         -7.9848  -15.4859   27.6218 Cl      1  UNL1       -0.0822
      9 C          -8.4027  -15.3258   25.0626 C.ar    1  UNL1        0.0115
     10 C          -8.8723  -15.9489   23.7815 C.ar    1  UNL1        0.0036
     11 C          -9.3935  -17.3554   23.7787 C.ar    1  UNL1        0.0306
     12 C         -10.8539  -20.0084   21.2136 C.3     1  UNL1        0.0950
     13 N         -10.0832  -19.7881   19.9457 N.3     1  UNL1       -0.3174
     14 H         -10.1326  -18.8033   19.6846 H       1  UNL1        0.1192
     15 H         -10.4841  -20.3579   19.2007 H       1  UNL1        0.1192
     16 N          -9.8114  -17.1953   21.2194 N.pl3   1  UNL1       -0.3328
     17 H          -9.0491  -17.3039   20.6059 H       1  UNL1        0.1468
     18 C         -10.9213  -16.2465   20.8759 C.3     1  UNL1        0.0870
     19 C         -12.3387  -16.5926   21.2244 C.3     1  UNL1        0.0212
     20 C         -13.3637  -17.6118   23.3832 C.3     1  UNL1        0.0001
     21 C         -12.8258  -16.4291   22.6336 C.3     1  UNL1        0.0017
@<TRIPOS>BOND
     1    20    21    1
     2    21    19    1
     3    19    18    1
     4    18    16    1
     5    16     1    1
     6     1     2   ar
     7     2    12    1
     8    12    13    1
     9     2     3   ar
    10     3     4   ar
    11     4     5   ar
    12     5     6   ar
    13     6     7   ar
    14     7     8    1
    15     7     9   ar
    16     9    10   ar
    17    10    11   ar
    18    11     1   ar
    19    11     5   ar
    20    16    17    1
    21    13    14    1
    22    13    15    1
@<TRIPOS>MOLECULE
*****
 21 22 0 0 0
SMALL
GASTEIGER

@<TRIPOS>ATOM
      1 C          -8.7057  -17.6176   22.1213 C.ar    1  UNL1        0.0448
      2 C          -7.7696  -18.7863   22.2094 C.ar    1  UNL1        0.0257
      3 C          -8.2322  -20.0731   22.8260 C.ar    1  UNL1        0.0971
      4 N          -9.6310  -20.1911   23.3545 N.ar    1  UNL1       -0.2440
      5 C         -10.5672  -19.0224   23.2664 C.ar    1  UNL1        0.0833
      6 C         -11.9660  -19.1405   23.7950 C.ar    1  UNL1        0.0305
      7 C         -12.9022  -17.9718   23.7069 C.ar    1  UNL1        0.0592
      8 CL        -14.3010  -18.0899   24.2354 Cl      1  UNL1       -0.0822
      9 C         -12.4395  -16.6851   23.0902 C.ar    1  UNL1        0.0115
     10 C         -11.0407  -16.5670   22.5617 C.ar    1  UNL1        0.0036
     11 C         -10.1046  -17.7357   22.6498 C.ar    1  UNL1        0.0306
     12 C          -6.3707  -18.6683   21.6808 C.3     1  UNL1        0.0950
     13 N          -6.1393  -18.4280   20.2184 N.3     1  UNL1       -0.3174
     14 H          -6.4549  -19.2391   19.6865 H       1  UNL1        0.1192
     15 H          -5.1442  -18.2783   20.0517 H       1  UNL1        0.1192
     16 N          -8.2431  -16.3309   21.5046 N.pl3   1  UNL1       -0.3328
     17 H          -8.2416  -16.2267   20.5256 H       1  UNL1        0.1468
     18 C          -7.7827  -15.2028   22.3796 C.3     1  UNL1        0.0870
     19 C          -6.8682  -15.4763   23.5368 C.3     1  UNL1        0.0212
     20 C          -8.7094  -15.6315   25.3632 C.3     1  UNL1        0.0001
     21 C          -7.3330  -15.2131   24.9384 C.3     1  UNL1        0.0017
@<TRIPOS>BOND
     1    20    21    1
     2    21    19    1
     3    19    18    1
     4    18    16    1
     5    16     1    1
     6     1     2   ar
     7     2    12    1
     8    12    13    1
     9     2     3   ar
    10     3     4   ar
    11     4     5   ar
    12     5     6   ar
    13     6     7   ar
    14     7     8    1
    15     7     9   ar
    16     9    10   ar
    17    10    11   ar
    18    11     1   ar
    19    11     5   ar
    20    16    17    1
    21    13    14    1
    22    13    15    1
@<TRIPOS>MOLECULE
*****
 21 22 0 0 0
SMALL
GASTEIGER

@<TRIPOS>ATOM
      1 C          -9.4644  -16.8971   22.2633 C.ar    1  UNL1        0.0448
      2 C          -8.2933  -16.5431   23.1311 C.ar    1  UNL1        0.0257
      3 C          -6.9737  -17.2260   22.9252 C.ar    1  UNL1        0.0971
      4 N          -6.8253  -18.2628   21.8515 N.ar    1  UNL1       -0.2440
      5 C          -7.9965  -18.6168   20.9836 C.ar    1  UNL1        0.0833
      6 C          -7.8480  -19.6536   19.9098 C.ar    1  UNL1        0.0305
      7 C          -9.0192  -20.0075   19.0420 C.ar    1  UNL1        0.0592
      8 CL         -8.8708  -21.0443   17.9682 Cl      1  UNL1       -0.0822
      9 C         -10.3387  -19.3246   19.2479 C.ar    1  UNL1        0.0115
     10 C         -10.4872  -18.2878   20.3217 C.ar    1  UNL1        0.0036
     11 C          -9.3160  -17.9339   21.1895 C.ar    1  UNL1        0.0306
     12 C          -8.4417  -15.5063   24.2049 C.3     1  UNL1        0.0950
     13 N          -7.5774  -14.2805   24.1885 N.3     1  UNL1       -0.3174
     14 H          -6.6052  -14.5479   24.3425 H       1  UNL1        0.1192
     15 H          -7.8761  -13.6439   24.9273 H       1  UNL1        0.1192
     16 N         -10.7840  -16.2142   22.4692 N.pl3   1  UNL1       -0.3328
     17 H         -10.9837  -15.3754   21.9939 H       1  UNL1        0.1468
     18 C         -11.7994  -16.8092   23.3994 C.3     1  UNL1        0.0870
     19 C         -11.9518  -18.2987   23.4896 C.3     1  UNL1        0.0212
     20 C         -10.2034  -20.1201   24.1022 C.3     1  UNL1        0.0001
     21 C         -11.1873  -19.0696   24.5245 C.3     1  UNL1        0.0017
@<TRIPOS>BOND
     1    20    21    1
     2    21    19    1
     3    19    18    1
     4    18    16    1
     5    16     1    1
     6     1     2   ar
     7     2    12    1
     8    12    13    1
     9     2     3   ar
    10     3     4   ar
    11     4     5   ar
    12     5     6   ar
    13     6     7   ar
    14     7     8    1
    15     7     9   ar
    16     9    10   ar
    17    10    11   ar
    18    11     1   ar
    19    11     5   ar
    20    16    17    1
    21    13    14    1
    22    13    15    1
@<TRIPOS>MOLECULE
*****
 21 22 0 0 0
SMALL
GASTEIGER

@<TRIPOS>ATOM
      1 C          -6.2056  -17.2785   23.0899 C.ar    1  UNL1        0.0448
      2 C          -5.3280  -18.3817   22.5773 C.ar    1  UNL1        0.0257
      3 C          -5.9410  -19.6524   22.0679 C.ar    1  UNL1        0.0971
      4 N          -7.4316  -19.8199   22.0710 N.ar    1  UNL1       -0.2440
      5 C          -8.3093  -18.7167   22.5836 C.ar    1  UNL1        0.0833
      6 C          -9.7999  -18.8842   22.5868 C.ar    1  UNL1        0.0305
      7 C         -10.6775  -17.7811   23.0993 C.ar    1  UNL1        0.0592
      8 CL        -12.1681  -17.9486   23.1025 Cl      1  UNL1       -0.0822
      9 C         -10.0645  -16.5103   23.6088 C.ar    1  UNL1        0.0115
     10 C          -8.5739  -16.3428   23.6056 C.ar    1  UNL1        0.0036
     11 C          -7.6963  -17.4460   23.0931 C.ar    1  UNL1        0.0306
     12 C          -3.8374  -18.2142   22.5742 C.3     1  UNL1        0.0950
     13 N          -3.2225  -16.9807   21.9822 N.3     1  UNL1       -0.3174
     14 H          -3.3986  -16.9616   20.9777 H       1  UNL1        0.1192
     15 H          -2.2166  -16.9876   22.1510 H       1  UNL1        0.1192
     16 N          -5.5926  -16.0078   23.5993 N.pl3   1  UNL1       -0.3328
     17 H          -5.4834  -15.2376   22.9960 H       1  UNL1        0.1468
     18 C          -5.1461  -15.9107   25.0281 C.3     1  UNL1        0.0870
     19 C          -5.9291  -15.0832   26.0039 C.3     1  UNL1        0.0212
     20 C          -8.1865  -15.5097   27.2174 C.3     1  UNL1        0.0001
     21 C          -6.7110  -15.7513   27.0958 C.3     1  UNL1        0.0017
@<TRIPOS>BOND
     1    20    21    1
     2    21    19    1
     3    19    18    1
     4    18    16    1
     5    16     1    1
     6     1     2   ar
     7     2    12    1
     8    12    13    1
     9     2     3   ar
    10     3     4   ar
    11     4     5   ar
    12     5     6   ar
    13     6     7   ar
    14     7     8    1
    15     7     9   ar
    16     9    10   ar
    17    10    11   ar
    18    11     1   ar
    19    11     5   ar
    20    16    17    1
    21    13    14    1
    22    13    15    1
@<TRIPOS>MOLECULE
*****
 21 22 0 0 0
SMALL
GASTEIGER

@<TRIPOS>ATOM
      1 C          -9.5599  -17.7635   21.6603 C.ar    1  UNL1        0.0448
      2 C         -10.7281  -18.0754   20.7727 C.ar    1  UNL1        0.0257
      3 C         -10.5702  -19.0426   19.6371 C.ar    1  UNL1        0.0971
      4 N          -9.2440  -19.6980   19.3892 N.ar    1  UNL1       -0.2440
      5 C          -8.0756  -19.3862   20.2768 C.ar    1  UNL1        0.0833
      6 C          -6.7494  -20.0417   20.0288 C.ar    1  UNL1        0.0305
      7 C          -5.5811  -19.7298   20.9164 C.ar    1  UNL1        0.0592
      8 CL         -4.2548  -20.3853   20.6685 Cl      1  UNL1       -0.0822
      9 C          -5.7391  -18.7626   22.0520 C.ar    1  UNL1        0.0115
     10 C          -7.0653  -18.1072   22.2999 C.ar    1  UNL1        0.0036
     11 C          -8.2336  -18.4190   21.4123 C.ar    1  UNL1        0.0306
     12 C         -12.0544  -17.4199   21.0206 C.3     1  UNL1        0.0950
     13 N         -12.5097  -16.2925   20.1422 N.3     1  UNL1       -0.3174
     14 H         -11.8951  -15.4892   20.2740 H       1  UNL1        0.1192
     15 H         -13.4650  -16.0337   20.3888 H       1  UNL1        0.1192
     16 N          -9.7178  -16.7963   22.7958 N.pl3   1  UNL1       -0.3328
     17 H          -9.6512  -15.8280   22.6306 H       1  UNL1        0.1468
     18 C          -9.9773  -17.3043   24.1832 C.3     1  UNL1        0.0870
     19 C         -10.8018  -18.5407   24.3871 C.3     1  UNL1        0.0212
     20 C          -9.3409  -20.6586   24.0264 C.3     1  UNL1        0.0001
     21 C         -10.1645  -19.7865   24.9271 C.3     1  UNL1        0.0017
@<TRIPOS>BOND
     1    20    21    1
     2    21    19    1
     3    19    18    1
     4    18    16    1
     5    16     1    1
     6     1     2   ar
     7     2    12    1
     8    12    13    1
     9     2     3   ar
    10     3     4   ar
    11     4     5   ar
    12     5     6   ar
    13     6     7   ar
    14     7     8    1
    15     7     9   ar
    16     9    10   ar
    17    10    11   ar
    18    11     1   ar
    19    11     5   ar
    20    16    17    1
    21    13    14    1
    22    13    15    1
@<TRIPOS>MOLECULE
*****
 21 22 0 0 0
SMALL
GASTEIGER

@<TRIPOS>ATOM
      1 C          -8.1323  -17.9611   21.5865 C.ar    1  UNL1        0.0448
      2 C          -8.4440  -16.9007   22.6006 C.ar    1  UNL1        0.0257
      3 C          -7.3639  -16.3889   23.5069 C.ar    1  UNL1        0.0971
      4 N          -5.9720  -16.9375   23.3991 N.ar    1  UNL1       -0.2440
      5 C          -5.6602  -17.9980   22.3849 C.ar    1  UNL1        0.0833
      6 C          -4.2683  -18.5465   22.2771 C.ar    1  UNL1        0.0305
      7 C          -3.9566  -19.6069   21.2630 C.ar    1  UNL1        0.0592
      8 CL         -2.5647  -20.1555   21.1552 Cl      1  UNL1       -0.0822
      9 C          -5.0368  -20.1187   20.3567 C.ar    1  UNL1        0.0115
     10 C          -6.4287  -19.5701   20.4646 C.ar    1  UNL1        0.0036
     11 C          -6.7404  -18.5097   21.4787 C.ar    1  UNL1        0.0306
     12 C          -9.8360  -16.3521   22.7085 C.3     1  UNL1        0.0950
     13 N         -10.4822  -15.7071   21.5183 N.3     1  UNL1       -0.3174
     14 H          -9.9797  -14.8521   21.2803 H       1  UNL1        0.1192
     15 H         -11.4521  -15.4813   21.7388 H       1  UNL1        0.1192
     16 N          -9.2125  -18.4728   20.6802 N.pl3   1  UNL1       -0.3328
     17 H          -9.4444  -17.9771   19.8619 H       1  UNL1        0.1468
     18 C          -9.9394  -19.7400   21.0208 C.3     1  UNL1        0.0870
     19 C         -10.9967  -19.7353   22.0848 C.3     1  UNL1        0.0212
     20 C          -9.2827  -20.5140   23.8753 C.3     1  UNL1        0.0001
     21 C         -10.6138  -19.9186   23.5235 C.3     1  UNL1        0.0017
@<TRIPOS>BOND
     1    20    21    1
     2    21    19    1
     3    19    18    1
     4    18    16    1
     5    16     1    1
     6     1     2   ar
     7     2    12    1
     8    12    13    1
     9     2     3   ar
    10     3     4   ar
    11     4     5   ar
    12     5     6   ar
    13     6     7   ar
    14     7     8    1
    15     7     9   ar
    16     9    10   ar
    17    10    11   ar
    18    11     1   ar
    19    11     5   ar
    20    16    17    1
    21    13    14    1
    22    13    15    1
@<TRIPOS>MOLECULE
*****
 21 22 0 0 0
SMALL
GASTEIGER

@<TRIPOS>ATOM
      1 C          -7.3811  -17.4492   22.8613 C.ar    1  UNL1        0.0448
      2 C          -6.7847  -16.4092   23.7628 C.ar    1  UNL1        0.0257
      3 C          -5.2947  -16.2958   23.8940 C.ar    1  UNL1        0.0971
      4 N          -4.4013  -17.2222   23.1237 N.ar    1  UNL1       -0.2440
      5 C          -4.9977  -18.2622   22.2221 C.ar    1  UNL1        0.0833
      6 C          -4.1043  -19.1887   21.4519 C.ar    1  UNL1        0.0305
      7 C          -4.7007  -20.2286   20.5504 C.ar    1  UNL1        0.0592
      8 CL         -3.8073  -21.1551   19.7801 Cl      1  UNL1       -0.0822
      9 C          -6.1907  -20.3421   20.4192 C.ar    1  UNL1        0.0115
     10 C          -7.0841  -19.4156   21.1895 C.ar    1  UNL1        0.0036
     11 C          -6.4877  -18.3757   22.0909 C.ar    1  UNL1        0.0306
     12 C          -7.6781  -15.4827   24.5331 C.3     1  UNL1        0.0950
     13 N          -7.7524  -14.0313   24.1617 N.3     1  UNL1       -0.3174
     14 H          -6.8514  -13.5880   24.3410 H       1  UNL1        0.1192
     15 H          -8.4734  -13.5740   24.7197 H       1  UNL1        0.1192
     16 N          -8.8711  -17.5627   22.7301 N.pl3   1  UNL1       -0.3328
     17 H          -9.3449  -17.0473   22.0379 H       1  UNL1        0.1468
     18 C          -9.6390  -18.4614   23.6534 C.3     1  UNL1        0.0870
     19 C          -9.9831  -19.8577   23.2266 C.3     1  UNL1        0.0212
     20 C         -10.7863  -19.7717   20.7573 C.3     1  UNL1        0.0001
     21 C         -11.0523  -20.0860   22.1997 C.3     1  UNL1        0.0017
@<TRIPOS>BOND
     1    20    21    1
     2    21    19    1
     3    19    18    1
     4    18    16    1
     5    16     1    1
     6     1     2   ar
     7     2    12    1
     8    12    13    1
     9     2     3   ar
    10     3     4   ar
    11     4     5   ar
    12     5     6   ar
    13     6     7   ar
    14     7     8    1
    15     7     9   ar
    16     9    10   ar
    17    10    11   ar
    18    11     1   ar
    19    11     5   ar
    20    16    17    1
    21    13    14    1
    22    13    15    1
@<TRIPOS>MOLECULE
*****
 21 22 0 0 0
SMALL
GASTEIGER

@<TRIPOS>ATOM
      1 C         -11.8793   -6.4063   19.0747 C.ar    1  UNL1        0.0448
      2 C         -10.3902   -6.3792   18.8963 C.ar    1  UNL1        0.0257
      3 C          -9.6662   -5.0671   18.8328 C.ar    1  UNL1        0.0971
      4 N         -10.4313   -3.7820   18.9476 N.ar    1  UNL1       -0.2440
      5 C         -11.9204   -3.8091   19.1260 C.ar    1  UNL1        0.0833
      6 C         -12.6855   -2.5240   19.2408 C.ar    1  UNL1        0.0305
      7 C         -14.1746   -2.5511   19.4192 C.ar    1  UNL1        0.0592
      8 CL        -14.9398   -1.2660   19.5340 Cl      1  UNL1       -0.0822
      9 C         -14.8986   -3.8633   19.4827 C.ar    1  UNL1        0.0115
     10 C         -14.1335   -5.1483   19.3679 C.ar    1  UNL1        0.0036
     11 C         -12.6444   -5.1212   19.1895 C.ar    1  UNL1        0.0306
     12 C          -9.6250   -7.6643   18.7815 C.3     1  UNL1        0.0950
     13 N          -9.9660   -8.6461   17.6999 N.3     1  UNL1       -0.3174
     14 H         -10.9017   -9.0184   17.8613 H       1  UNL1        0.1192
     15 H          -9.2900   -9.4099   17.7086 H       1  UNL1        0.1192
     16 N         -12.6033   -7.7185   19.1382 N.pl3   1  UNL1       -0.3328
     17 H         -12.5054   -8.2970   19.9288 H       1  UNL1        0.1468
     18 C         -13.4765   -8.1493   17.9971 C.3     1  UNL1        0.0870
     19 C         -14.6908   -8.9904   18.2580 C.3     1  UNL1        0.0212
     20 C         -16.4868   -8.9707   20.1352 C.3     1  UNL1        0.0001
     21 C         -15.9073   -8.3771   18.8855 C.3     1  UNL1        0.0017
@<TRIPOS>BOND
     1    20    21    1
     2    21    19    1
     3    19    18    1
     4    18    16    1
     5    16     1    1
     6     1     2   ar
     7     2    12    1
     8    12    13    1
     9     2     3   ar
    10     3     4   ar
    11     4     5   ar
    12     5     6   ar
    13     6     7   ar
    14     7     8    1
    15     7     9   ar
    16     9    10   ar
    17    10    11   ar
    18    11     1   ar
    19    11     5   ar
    20    16    17    1
    21    13    14    1
    22    13    15    1
@<TRIPOS>MOLECULE
*****
 21 22 0 0 0
SMALL
GASTEIGER

@<TRIPOS>ATOM
      1 C         -10.0302  -17.9781   22.3018 C.ar    1  UNL1        0.0448
      2 C         -11.1749  -17.6071   21.4063 C.ar    1  UNL1        0.0257
      3 C         -11.1400  -17.9756   19.9527 C.ar    1  UNL1        0.0971
      4 N          -9.9603  -18.7150   19.3946 N.ar    1  UNL1       -0.2440
      5 C          -8.8155  -19.0860   20.2901 C.ar    1  UNL1        0.0833
      6 C          -7.6358  -19.8255   19.7320 C.ar    1  UNL1        0.0305
      7 C          -6.4911  -20.1964   20.6274 C.ar    1  UNL1        0.0592
      8 CL         -5.3114  -20.9359   20.0693 Cl      1  UNL1       -0.0822
      9 C          -6.5261  -19.8279   22.0811 C.ar    1  UNL1        0.0115
     10 C          -7.7057  -19.0885   22.6392 C.ar    1  UNL1        0.0036
     11 C          -8.8505  -18.7175   21.7437 C.ar    1  UNL1        0.0306
     12 C         -12.3547  -16.8676   21.9644 C.3     1  UNL1        0.0950
     13 N         -13.0828  -17.4093   23.1588 N.3     1  UNL1       -0.3174
     14 H         -13.5346  -18.2895   22.9112 H       1  UNL1        0.1192
     15 H         -13.7888  -16.7376   23.4600 H       1  UNL1        0.1192
     16 N         -10.0652  -17.6096   23.7554 N.pl3   1  UNL1       -0.3328
     17 H         -10.4163  -18.2486   24.4169 H       1  UNL1        0.1468
     18 C          -9.5651  -16.2674   24.2011 C.3     1  UNL1        0.0870
     19 C          -8.2867  -16.1638   24.9788 C.3     1  UNL1        0.0212
     20 C          -7.1225  -15.5855   27.2283 C.3     1  UNL1        0.0001
     21 C          -8.3245  -16.0741   26.4756 C.3     1  UNL1        0.0017
@<TRIPOS>BOND
     1    20    21    1
     2    21    19    1
     3    19    18    1
     4    18    16    1
     5    16     1    1
     6     1     2   ar
     7     2    12    1
     8    12    13    1
     9     2     3   ar
    10     3     4   ar
    11     4     5   ar
    12     5     6   ar
    13     6     7   ar
    14     7     8    1
    15     7     9   ar
    16     9    10   ar
    17    10    11   ar
    18    11     1   ar
    19    11     5   ar
    20    16    17    1
    21    13    14    1
    22    13    15    1
