@<TRIPOS>MOLECULE
*****
 35 39 0 0 0
SMALL
GASTEIGER

@<TRIPOS>ATOM
      1 C          -3.9307    3.2425   20.7567 C.ar    1  UNL1        0.1285
      2 N          -2.6053    3.1977   20.0556 N.ar    1  UNL1       -0.1992
      3 C          -1.3347    3.2946   20.8467 C.ar    1  UNL1        0.2215
      4 N          -1.3893    3.4362   22.3390 N.ar    1  UNL1       -0.2179
      5 C          -2.7145    3.4810   23.0402 C.ar    1  UNL1        0.0642
      6 C          -3.9853    3.3842   22.2490 C.ar    1  UNL1        0.0232
      7 C          -5.1356    3.4566   23.2089 C.3     1  UNL1        0.0311
      8 C          -4.5759    3.5983   24.5933 C.3     1  UNL1        0.0151
      9 C          -3.0796    3.6133   24.4891 C.3     1  UNL1        0.0627
     10 C          -2.1173    3.7387   25.6328 C.ar    1  UNL1       -0.0168
     11 C          -1.2819    2.5621   26.0425 C.ar    1  UNL1       -0.0016
     12 C          -0.3196    2.6875   27.1864 C.ar    1  UNL1        0.0293
     13 C          -0.1926    3.9893   27.9204 C.ar    1  UNL1        0.1401
     14 F           0.7697    4.1147   29.0642 F       1  UNL1       -0.2042
     15 C          -1.0281    5.1659   27.5107 C.ar    1  UNL1        0.0293
     16 C          -1.9903    5.0406   26.3670 C.ar    1  UNL1       -0.0016
     17 C          -5.2431    3.6403   18.5500 C.3     1  UNL1        0.1096
     18 N          -5.2014    3.1457   19.9655 N.pl3   1  UNL1       -0.3168
     19 H          -6.0080    2.7575   20.3752 H       1  UNL1        0.1482
     20 N          -0.0093    3.2498   20.1456 N.pl3   1  UNL1       -0.2824
     21 H           0.3251    4.0464   19.6737 H       1  UNL1        0.1551
     22 C           0.8064    1.9911   20.1637 C.ar    1  UNL1        0.0536
     23 C           0.1410    0.6695   20.4098 C.ar    1  UNL1        0.0164
     24 C           0.9568   -0.5892   20.4279 C.ar    1  UNL1        0.0236
     25 C           2.4381   -0.5261   20.1997 C.ar    1  UNL1        0.1185
     26 C           3.1035    0.7954   19.9536 C.ar    1  UNL1        0.1575
     27 C           2.2876    2.0541   19.9356 C.ar    1  UNL1        0.0531
     28 N           3.2538   -1.7848   20.2178 N.ar    1  UNL1       -0.2053
     29 C           4.1113   -2.2635   21.3516 C.ar    1  UNL1        0.2014
     30 N           4.7428   -3.5603   20.9398 N.ar    1  UNL1       -0.2073
     31 C           4.2756   -3.8830   19.5514 C.ar    1  UNL1        0.1613
     32 C           4.6610   -5.0910   18.7499 C.3     1  UNL1        0.0756
     33 N           3.3554   -2.7857   19.1052 N.ar    1  UNL1       -0.1487
     34 O           4.5847    0.8585   19.7255 O.3     1  UNL1       -0.4699
     35 C           5.1370    0.7099   18.3389 C.3     1  UNL1        0.2525
@<TRIPOS>BOND
     1    17    18    1
     2    18     1    1
     3     1     2   ar
     4     2     3   ar
     5     3    20    1
     6    20    22    1
     7    22    23   ar
     8    23    24   ar
     9    24    25   ar
    10    25    28    1
    11    28    29   ar
    12    29    30   ar
    13    30    31   ar
    14    31    32    1
    15    31    33   ar
    16    25    26   ar
    17    26    34    1
    18    34    35    1
    19    26    27   ar
    20     3     4   ar
    21     4     5   ar
    22     5     6   ar
    23     6     7    1
    24     7     8    1
    25     8     9    1
    26     9    10    1
    27    10    11   ar
    28    11    12   ar
    29    12    13   ar
    30    13    14    1
    31    13    15   ar
    32    15    16   ar
    33     6     1   ar
    34    16    10   ar
    35    27    22   ar
    36     9     5    1
    37    33    28   ar
    38    18    19    1
    39    20    21    1
@<TRIPOS>MOLECULE
*****
 35 39 0 0 0
SMALL
GASTEIGER

@<TRIPOS>ATOM
      1 C           5.4470   -3.0411   24.1050 C.ar    1  UNL1        0.1285
      2 N           5.3269   -1.8931   25.0632 N.ar    1  UNL1       -0.1992
      3 C           4.5768   -0.6575   24.6629 C.ar    1  UNL1        0.2215
      4 N           3.9467   -0.5696   23.3045 N.ar    1  UNL1       -0.2179
      5 C           4.0668   -1.7175   22.3464 C.ar    1  UNL1        0.0642
      6 C           4.8169   -2.9532   22.7467 C.ar    1  UNL1        0.0232
      7 C           4.7687   -3.9171   21.5984 C.3     1  UNL1        0.0311
      8 C           3.9888   -3.2771   20.4884 C.3     1  UNL1        0.0151
      9 C           3.5549   -1.9176   20.9507 C.3     1  UNL1        0.0627
     10 C           2.7505   -0.9316   20.1567 C.ar    1  UNL1       -0.0168
     11 C           3.3502   -0.2737   18.9493 C.ar    1  UNL1       -0.0016
     12 C           2.5457    0.7124   18.1552 C.ar    1  UNL1        0.0293
     13 C           1.1417    1.0407   18.5685 C.ar    1  UNL1        0.1401
     14 F           0.3373    2.0268   17.7745 F       1  UNL1       -0.2042
     15 C           0.5420    0.3828   19.7759 C.ar    1  UNL1        0.0293
     16 C           1.3464   -0.6033   20.5699 C.ar    1  UNL1       -0.0016
     17 C           6.8884   -4.3367   25.8353 C.3     1  UNL1        0.1096
     18 N           6.1972   -4.2768   24.5054 N.pl3   1  UNL1       -0.3168
     19 H           6.2360   -5.0485   23.8953 H       1  UNL1        0.1482
     20 N           4.4567    0.4905   25.6210 N.pl3   1  UNL1       -0.2824
     21 H           4.4090    1.4130   25.2804 H       1  UNL1        0.1551
     22 C           4.4092    0.2328   27.0979 C.ar    1  UNL1        0.0536
     23 C           5.6769    0.2283   27.8997 C.ar    1  UNL1        0.0164
     24 C           5.6294   -0.0294   29.3766 C.ar    1  UNL1        0.0236
     25 C           4.3141   -0.2827   30.0518 C.ar    1  UNL1        0.1185
     26 C           3.0464   -0.2782   29.2501 C.ar    1  UNL1        0.1575
     27 C           3.0939   -0.0205   27.7731 C.ar    1  UNL1        0.0531
     28 N           4.2666   -0.5404   31.5287 N.ar    1  UNL1       -0.2053
     29 C           4.0446   -1.8708   32.1848 C.ar    1  UNL1        0.2014
     30 N           4.0735   -1.6657   33.6705 N.ar    1  UNL1       -0.2073
     31 C           4.3135   -0.2083   33.9325 C.ar    1  UNL1        0.1613
     32 C           4.4161    0.4398   35.2814 C.3     1  UNL1        0.0756
     33 N           4.4328    0.4871   32.6088 N.ar    1  UNL1       -0.1487
     34 O           1.7311   -0.5315   29.9252 O.3     1  UNL1       -0.4699
     35 C           0.4499   -0.1932   29.2224 C.3     1  UNL1        0.2525
@<TRIPOS>BOND
     1    17    18    1
     2    18     1    1
     3     1     2   ar
     4     2     3   ar
     5     3    20    1
     6    20    22    1
     7    22    23   ar
     8    23    24   ar
     9    24    25   ar
    10    25    28    1
    11    28    29   ar
    12    29    30   ar
    13    30    31   ar
    14    31    32    1
    15    31    33   ar
    16    25    26   ar
    17    26    34    1
    18    34    35    1
    19    26    27   ar
    20     3     4   ar
    21     4     5   ar
    22     5     6   ar
    23     6     7    1
    24     7     8    1
    25     8     9    1
    26     9    10    1
    27    10    11   ar
    28    11    12   ar
    29    12    13   ar
    30    13    14    1
    31    13    15   ar
    32    15    16   ar
    33     6     1   ar
    34    16    10   ar
    35    27    22   ar
    36     9     5    1
    37    33    28   ar
    38    18    19    1
    39    20    21    1
@<TRIPOS>MOLECULE
*****
 35 39 0 0 0
SMALL
GASTEIGER

@<TRIPOS>ATOM
      1 C           5.1634   -2.8387   24.4143 C.ar    1  UNL1        0.1285
      2 N           4.7293   -1.8205   25.4268 N.ar    1  UNL1       -0.1992
      3 C           3.8492   -0.6788   25.0124 C.ar    1  UNL1        0.2215
      4 N           3.4032   -0.5551   23.5856 N.ar    1  UNL1       -0.2179
      5 C           3.8373   -1.5732   22.5732 C.ar    1  UNL1        0.0642
      6 C           4.7174   -2.7150   22.9876 C.ar    1  UNL1        0.0232
      7 C           4.9829   -3.5590   21.7763 C.3     1  UNL1        0.0311
      8 C           4.2668   -2.9388   20.6133 C.3     1  UNL1        0.0151
      9 C           3.5588   -1.7115   21.1058 C.3     1  UNL1        0.0627
     10 C           2.7197   -0.7852   20.2764 C.ar    1  UNL1       -0.0168
     11 C           1.3101   -0.4792   20.6880 C.ar    1  UNL1       -0.0016
     12 C           0.4709    0.4471   19.8587 C.ar    1  UNL1        0.0293
     13 C           1.0413    1.0674   18.6179 C.ar    1  UNL1        0.1401
     14 F           0.2022    1.9937   17.7886 F       1  UNL1       -0.2042
     15 C           2.4510    0.7614   18.2063 C.ar    1  UNL1        0.0293
     16 C           3.2902   -0.1648   19.0356 C.ar    1  UNL1       -0.0016
     17 C           6.8500   -3.8864   26.0900 C.3     1  UNL1        0.1096
     18 N           6.0435   -3.9805   24.8288 N.pl3   1  UNL1       -0.3168
     19 H           6.0918   -4.7917   24.2731 H       1  UNL1        0.1482
     20 N           3.4151    0.3394   26.0248 N.pl3   1  UNL1       -0.2824
     21 H           3.0042    1.1837   25.7289 H       1  UNL1        0.1551
     22 C           3.6071    0.0711   27.4881 C.ar    1  UNL1        0.0536
     23 C           2.4510   -0.3934   28.3235 C.ar    1  UNL1        0.0164
     24 C           2.6430   -0.6617   29.7868 C.ar    1  UNL1        0.0236
     25 C           3.9911   -0.4655   30.4147 C.ar    1  UNL1        0.1185
     26 C           5.1471   -0.0010   29.5793 C.ar    1  UNL1        0.1575
     27 C           4.9551    0.2673   28.1160 C.ar    1  UNL1        0.0531
     28 N           4.1831   -0.7338   31.8779 N.ar    1  UNL1       -0.2053
     29 C           4.3578   -2.0821   32.5115 C.ar    1  UNL1        0.2014
     30 N           4.5168   -1.8825   33.9897 N.ar    1  UNL1       -0.2073
     31 C           4.4403   -0.4109   34.2696 C.ar    1  UNL1        0.1613
     32 C           4.5506    0.2372   35.6180 C.3     1  UNL1        0.0756
     33 N           4.2340    0.2991   32.9644 N.ar    1  UNL1       -0.1487
     34 O           6.4952    0.1952   30.2071 O.3     1  UNL1       -0.4699
     35 C           7.4871   -0.9299   30.2209 C.3     1  UNL1        0.2525
@<TRIPOS>BOND
     1    17    18    1
     2    18     1    1
     3     1     2   ar
     4     2     3   ar
     5     3    20    1
     6    20    22    1
     7    22    23   ar
     8    23    24   ar
     9    24    25   ar
    10    25    28    1
    11    28    29   ar
    12    29    30   ar
    13    30    31   ar
    14    31    32    1
    15    31    33   ar
    16    25    26   ar
    17    26    34    1
    18    34    35    1
    19    26    27   ar
    20     3     4   ar
    21     4     5   ar
    22     5     6   ar
    23     6     7    1
    24     7     8    1
    25     8     9    1
    26     9    10    1
    27    10    11   ar
    28    11    12   ar
    29    12    13   ar
    30    13    14    1
    31    13    15   ar
    32    15    16   ar
    33     6     1   ar
    34    16    10   ar
    35    27    22   ar
    36     9     5    1
    37    33    28   ar
    38    18    19    1
    39    20    21    1
@<TRIPOS>MOLECULE
*****
 35 39 0 0 0
SMALL
GASTEIGER

@<TRIPOS>ATOM
      1 C           5.3253   -2.7254   24.5050 C.ar    1  UNL1        0.1285
      2 N           5.0966   -1.5590   25.4201 N.ar    1  UNL1       -0.1992
      3 C           4.3043   -0.3773   24.9453 C.ar    1  UNL1        0.2215
      4 N           3.7407   -0.3617   23.5553 N.ar    1  UNL1       -0.2179
      5 C           3.9694   -1.5280   22.6402 C.ar    1  UNL1        0.0642
      6 C           4.7617   -2.7098   23.1150 C.ar    1  UNL1        0.0232
      7 C           4.8227   -3.7070   21.9961 C.3     1  UNL1        0.0311
      8 C           4.0680   -3.1413   20.8297 C.3     1  UNL1        0.0151
      9 C           3.5407   -1.7947   21.2277 C.3     1  UNL1        0.0627
     10 C           2.7274   -0.8760   20.3648 C.ar    1  UNL1       -0.0168
     11 C           1.3449   -0.4772   20.7887 C.ar    1  UNL1       -0.0016
     12 C           0.5315    0.4415   19.9257 C.ar    1  UNL1        0.0293
     13 C           1.1007    0.9613   18.6390 C.ar    1  UNL1        0.1401
     14 F           0.2874    1.8799   17.7761 F       1  UNL1       -0.2042
     15 C           2.4832    0.5624   18.2151 C.ar    1  UNL1        0.0293
     16 C           3.2966   -0.3562   19.0780 C.ar    1  UNL1       -0.0016
     17 C           6.7565   -3.8855   26.3369 C.3     1  UNL1        0.1096
     18 N           6.1177   -3.9072   24.9800 N.pl3   1  UNL1       -0.3168
     19 H           6.2184   -4.6971   24.4011 H       1  UNL1        0.1482
     20 N           4.0756    0.7891   25.8604 N.pl3   1  UNL1       -0.2824
     21 H           4.8092    1.1223   26.4260 H       1  UNL1        0.1551
     22 C           2.7289    1.4477   25.9136 C.ar    1  UNL1        0.0536
     23 C           2.4345    2.6253   25.0323 C.ar    1  UNL1        0.0164
     24 C           1.0879    3.2839   25.0855 C.ar    1  UNL1        0.0236
     25 C           0.0356    2.7648   26.0202 C.ar    1  UNL1        0.1185
     26 C           0.3300    1.5874   26.9015 C.ar    1  UNL1        0.1575
     27 C           1.6767    0.9288   26.8482 C.ar    1  UNL1        0.0531
     28 N          -1.3110    3.4234   26.0735 N.ar    1  UNL1       -0.2053
     29 C          -1.7030    4.5570   26.9742 C.ar    1  UNL1        0.2014
     30 N          -3.1364    4.8983   26.6928 N.ar    1  UNL1       -0.2073
     31 C          -3.6301    3.9756   25.6181 C.ar    1  UNL1        0.1613
     32 C          -5.0099    3.9661   25.0295 C.3     1  UNL1        0.0756
     33 N          -2.5020    3.0641   25.2354 N.ar    1  UNL1       -0.1487
     34 O          -0.7221    1.0683   27.8361 O.3     1  UNL1       -0.4699
     35 C          -0.4618   -0.1661   28.6475 C.3     1  UNL1        0.2525
@<TRIPOS>BOND
     1    17    18    1
     2    18     1    1
     3     1     2   ar
     4     2     3   ar
     5     3    20    1
     6    20    22    1
     7    22    23   ar
     8    23    24   ar
     9    24    25   ar
    10    25    28    1
    11    28    29   ar
    12    29    30   ar
    13    30    31   ar
    14    31    32    1
    15    31    33   ar
    16    25    26   ar
    17    26    34    1
    18    34    35    1
    19    26    27   ar
    20     3     4   ar
    21     4     5   ar
    22     5     6   ar
    23     6     7    1
    24     7     8    1
    25     8     9    1
    26     9    10    1
    27    10    11   ar
    28    11    12   ar
    29    12    13   ar
    30    13    14    1
    31    13    15   ar
    32    15    16   ar
    33     6     1   ar
    34    16    10   ar
    35    27    22   ar
    36     9     5    1
    37    33    28   ar
    38    18    19    1
    39    20    21    1
@<TRIPOS>MOLECULE
*****
 35 39 0 0 0
SMALL
GASTEIGER

@<TRIPOS>ATOM
      1 C         -12.1725   -4.3824   19.3679 C.ar    1  UNL1        0.1285
      2 N         -13.0772   -3.2946   19.8663 N.ar    1  UNL1       -0.1992
      3 C         -14.5526   -3.5395   19.9799 C.ar    1  UNL1        0.2215
      4 N         -15.1235   -4.8721   19.5951 N.ar    1  UNL1       -0.2179
      5 C         -14.2190   -5.9599   19.0968 C.ar    1  UNL1        0.0642
      6 C         -12.7434   -5.7151   18.9831 C.ar    1  UNL1        0.0232
      7 C         -12.1042   -6.9684   18.4631 C.3     1  UNL1        0.0311
      8 C         -13.1847   -7.9879   18.2553 C.3     1  UNL1        0.0151
      9 C         -14.4917   -7.3646   18.6469 C.3     1  UNL1        0.0627
     10 C         -15.8354   -8.0294   18.5974 C.ar    1  UNL1       -0.0168
     11 C         -16.6089   -8.0625   17.3127 C.ar    1  UNL1       -0.0016
     12 C         -17.9527   -8.7272   17.2631 C.ar    1  UNL1        0.0293
     13 C         -18.5230   -9.3588   18.4983 C.ar    1  UNL1        0.1401
     14 F         -19.8667  -10.0236   18.4488 F       1  UNL1       -0.2042
     15 C         -17.7494   -9.3257   19.7831 C.ar    1  UNL1        0.0293
     16 C         -16.4057   -8.6610   19.8327 C.ar    1  UNL1       -0.0016
     17 C         -10.0791   -3.8901   17.9100 C.3     1  UNL1        0.1096
     18 N         -10.6969   -4.1375   19.2542 N.pl3   1  UNL1       -0.3168
     19 H         -10.1341   -4.1391   20.0619 H       1  UNL1        0.1482
     20 N         -15.4572   -2.4516   20.4783 N.pl3   1  UNL1       -0.2824
     21 H         -16.0700   -2.6263   21.2288 H       1  UNL1        0.1551
     22 C         -15.4282   -1.0978   19.8331 C.ar    1  UNL1        0.0536
     23 C         -16.3351   -0.0108   20.3293 C.ar    1  UNL1        0.0164
     24 C         -16.3061    1.3430   19.6841 C.ar    1  UNL1        0.0236
     25 C         -15.3701    1.6099   18.5427 C.ar    1  UNL1        0.1185
     26 C         -14.4632    0.5231   18.0466 C.ar    1  UNL1        0.1575
     27 C         -14.4923   -0.8308   18.6918 C.ar    1  UNL1        0.0531
     28 N         -15.3410    2.9638   17.8976 N.ar    1  UNL1       -0.2053
     29 C         -16.2600    3.4437   16.8136 C.ar    1  UNL1        0.2014
     30 N         -15.8749    4.8520   16.4691 N.ar    1  UNL1       -0.2073
     31 C         -14.7179    5.2423   17.3403 C.ar    1  UNL1        0.1613
     32 C         -14.0143    6.5671   17.3304 C.3     1  UNL1        0.0756
     33 N         -14.3879    4.0753   18.2231 N.ar    1  UNL1       -0.1487
     34 O         -13.5272    0.7899   16.9052 O.3     1  UNL1       -0.4699
     35 C         -12.1114    1.2036   17.1773 C.3     1  UNL1        0.2525
@<TRIPOS>BOND
     1    17    18    1
     2    18     1    1
     3     1     2   ar
     4     2     3   ar
     5     3    20    1
     6    20    22    1
     7    22    23   ar
     8    23    24   ar
     9    24    25   ar
    10    25    28    1
    11    28    29   ar
    12    29    30   ar
    13    30    31   ar
    14    31    32    1
    15    31    33   ar
    16    25    26   ar
    17    26    34    1
    18    34    35    1
    19    26    27   ar
    20     3     4   ar
    21     4     5   ar
    22     5     6   ar
    23     6     7    1
    24     7     8    1
    25     8     9    1
    26     9    10    1
    27    10    11   ar
    28    11    12   ar
    29    12    13   ar
    30    13    14    1
    31    13    15   ar
    32    15    16   ar
    33     6     1   ar
    34    16    10   ar
    35    27    22   ar
    36     9     5    1
    37    33    28   ar
    38    18    19    1
    39    20    21    1
@<TRIPOS>MOLECULE
*****
 35 39 0 0 0
SMALL
GASTEIGER

@<TRIPOS>ATOM
      1 C          -0.0587    2.3589   23.4149 C.ar    1  UNL1        0.1285
      2 N           0.6690    1.7953   24.5994 N.ar    1  UNL1       -0.1992
      3 C           1.7476    0.7723   24.3998 C.ar    1  UNL1        0.2215
      4 N           2.0986    0.3127   23.0158 N.ar    1  UNL1       -0.2179
      5 C           1.3709    0.8761   21.8313 C.ar    1  UNL1        0.0642
      6 C           0.2923    1.8992   22.0309 C.ar    1  UNL1        0.0232
      7 C          -0.2479    2.2724   20.6822 C.3     1  UNL1        0.0311
      8 C           0.4969    1.4799   19.6491 C.3     1  UNL1        0.0151
      9 C           1.4974    0.6170   20.3593 C.3     1  UNL1        0.0627
     10 C           2.4560   -0.3375   19.7112 C.ar    1  UNL1       -0.0168
     11 C           2.7848   -1.6395   20.3794 C.ar    1  UNL1       -0.0016
     12 C           3.7435   -2.5941   19.7313 C.ar    1  UNL1        0.0293
     13 C           4.3732   -2.2465   18.4152 C.ar    1  UNL1        0.1401
     14 F           5.3318   -3.2010   17.7671 F       1  UNL1       -0.2042
     15 C           4.0444   -0.9444   17.7469 C.ar    1  UNL1        0.0293
     16 C           3.0858    0.0101   18.3949 C.ar    1  UNL1       -0.0016
     17 C          -2.0069    3.3266   24.8355 C.3     1  UNL1        0.1096
     18 N          -1.1374    3.3820   23.6145 N.pl3   1  UNL1       -0.3168
     19 H          -1.2746    4.0898   22.9442 H       1  UNL1        0.1482
     20 N           2.4754    0.2088   25.5843 N.pl3   1  UNL1       -0.2824
     21 H           3.1039   -0.5396   25.4655 H       1  UNL1        0.1551
     22 C           2.2454    0.7856   26.9497 C.ar    1  UNL1        0.0536
     23 C           3.2313    1.7559   27.5299 C.ar    1  UNL1        0.0164
     24 C           3.0014    2.3328   28.8953 C.ar    1  UNL1        0.0236
     25 C           1.7854    1.9393   29.6806 C.ar    1  UNL1        0.1185
     26 C           0.7995    0.9691   29.1006 C.ar    1  UNL1        0.1575
     27 C           1.0295    0.3922   27.7351 C.ar    1  UNL1        0.0531
     28 N           1.5555    2.5161   31.0460 N.ar    1  UNL1       -0.2053
     29 C           2.0364    1.9333   32.3418 C.ar    1  UNL1        0.2014
     30 N           1.5824    2.8340   33.4521 N.ar    1  UNL1       -0.2073
     31 C           0.8209    3.9734   32.8424 C.ar    1  UNL1        0.1613
     32 C           0.1872    5.1099   33.5888 C.3     1  UNL1        0.0756
     33 N           0.8042    3.7770   31.3554 N.ar    1  UNL1       -0.1487
     34 O          -0.4164    0.5755   29.8858 O.3     1  UNL1       -0.4699
     35 C          -1.6414    0.0824   29.1745 C.3     1  UNL1        0.2525
@<TRIPOS>BOND
     1    17    18    1
     2    18     1    1
     3     1     2   ar
     4     2     3   ar
     5     3    20    1
     6    20    22    1
     7    22    23   ar
     8    23    24   ar
     9    24    25   ar
    10    25    28    1
    11    28    29   ar
    12    29    30   ar
    13    30    31   ar
    14    31    32    1
    15    31    33   ar
    16    25    26   ar
    17    26    34    1
    18    34    35    1
    19    26    27   ar
    20     3     4   ar
    21     4     5   ar
    22     5     6   ar
    23     6     7    1
    24     7     8    1
    25     8     9    1
    26     9    10    1
    27    10    11   ar
    28    11    12   ar
    29    12    13   ar
    30    13    14    1
    31    13    15   ar
    32    15    16   ar
    33     6     1   ar
    34    16    10   ar
    35    27    22   ar
    36     9     5    1
    37    33    28   ar
    38    18    19    1
    39    20    21    1
@<TRIPOS>MOLECULE
*****
 35 39 0 0 0
SMALL
GASTEIGER

@<TRIPOS>ATOM
      1 C           6.0036   -2.1554   31.0566 C.ar    1  UNL1        0.1285
      2 N           5.8027   -1.1479   29.9635 N.ar    1  UNL1       -0.1992
      3 C           6.1381   -1.5029   28.5453 C.ar    1  UNL1        0.2215
      4 N           6.6745   -2.8654   28.2200 N.ar    1  UNL1       -0.2179
      5 C           6.8754   -3.8729   29.3130 C.ar    1  UNL1        0.0642
      6 C           6.5400   -3.5179   30.7313 C.ar    1  UNL1        0.0232
      7 C           6.8412   -4.7095   31.5911 C.3     1  UNL1        0.0311
      8 C           7.3628   -5.8010   30.7042 C.3     1  UNL1        0.0151
      9 C           7.3840   -5.2840   29.2963 C.3     1  UNL1        0.0627
     10 C           7.8345   -6.0445   28.0845 C.ar    1  UNL1       -0.0168
     11 C           7.0395   -5.9714   26.8146 C.ar    1  UNL1       -0.0016
     12 C           7.4900   -6.7319   25.6027 C.ar    1  UNL1        0.0293
     13 C           8.7356   -7.5656   25.6607 C.ar    1  UNL1        0.1401
     14 F           9.1861   -8.3261   24.4489 F       1  UNL1       -0.2042
     15 C           9.5307   -7.6387   26.9306 C.ar    1  UNL1        0.0293
     16 C           9.0802   -6.8782   28.1425 C.ar    1  UNL1       -0.0016
     17 C           4.3813   -2.2744   33.0824 C.3     1  UNL1        0.1096
     18 N           5.6682   -1.8002   32.4748 N.pl3   1  UNL1       -0.3168
     19 H           6.2926   -1.2560   33.0069 H       1  UNL1        0.1482
     20 N           5.9372   -0.4954   27.4523 N.pl3   1  UNL1       -0.2824
     21 H           6.0474    0.4645   27.6412 H       1  UNL1        0.1551
     22 C           5.5683   -0.9506   26.0714 C.ar    1  UNL1        0.0536
     23 C           4.1285   -1.1747   25.7151 C.ar    1  UNL1        0.0164
     24 C           3.7596   -1.6298   24.3343 C.ar    1  UNL1        0.0236
     25 C           4.8306   -1.8609   23.3096 C.ar    1  UNL1        0.1185
     26 C           6.2703   -1.6368   23.6659 C.ar    1  UNL1        0.1575
     27 C           6.6392   -1.1816   25.0468 C.ar    1  UNL1        0.0531
     28 N           4.4617   -2.3160   21.9288 N.ar    1  UNL1       -0.2053
     29 C           3.8282   -1.4726   20.8624 C.ar    1  UNL1        0.2014
     30 N           3.6365   -2.3298   19.6464 N.ar    1  UNL1       -0.2073
     31 C           4.1516   -3.7029   19.9613 C.ar    1  UNL1        0.1613
     32 C           4.1559   -4.8783   19.0293 C.3     1  UNL1        0.0756
     33 N           4.6616   -3.6944   21.3720 N.ar    1  UNL1       -0.1487
     34 O           7.3412   -1.8678   22.6413 O.3     1  UNL1       -0.4699
     35 C           7.7589   -0.7533   21.7285 C.3     1  UNL1        0.2525
@<TRIPOS>BOND
     1    17    18    1
     2    18     1    1
     3     1     2   ar
     4     2     3   ar
     5     3    20    1
     6    20    22    1
     7    22    23   ar
     8    23    24   ar
     9    24    25   ar
    10    25    28    1
    11    28    29   ar
    12    29    30   ar
    13    30    31   ar
    14    31    32    1
    15    31    33   ar
    16    25    26   ar
    17    26    34    1
    18    34    35    1
    19    26    27   ar
    20     3     4   ar
    21     4     5   ar
    22     5     6   ar
    23     6     7    1
    24     7     8    1
    25     8     9    1
    26     9    10    1
    27    10    11   ar
    28    11    12   ar
    29    12    13   ar
    30    13    14    1
    31    13    15   ar
    32    15    16   ar
    33     6     1   ar
    34    16    10   ar
    35    27    22   ar
    36     9     5    1
    37    33    28   ar
    38    18    19    1
    39    20    21    1
@<TRIPOS>MOLECULE
*****
 35 39 0 0 0
SMALL
GASTEIGER

@<TRIPOS>ATOM
      1 C           5.2039   -2.3322   25.0408 C.ar    1  UNL1        0.1285
      2 N           4.8114   -1.1529   25.8806 N.ar    1  UNL1       -0.1992
      3 C           3.9691   -0.0602   25.2922 C.ar    1  UNL1        0.2215
      4 N           3.5191   -0.1466   23.8639 N.ar    1  UNL1       -0.2179
      5 C           3.9115   -1.3259   23.0241 C.ar    1  UNL1        0.0642
      6 C           4.7539   -2.4187   23.6125 C.ar    1  UNL1        0.0232
      7 C           4.9826   -3.4514   22.5490 C.3     1  UNL1        0.0311
      8 C           4.2815   -2.9969   21.3032 C.3     1  UNL1        0.0151
      9 C           3.6195   -1.6832   21.5968 C.3     1  UNL1        0.0627
     10 C           2.8081   -0.8698   20.6325 C.ar    1  UNL1       -0.0168
     11 C           3.4195   -0.4042   19.3443 C.ar    1  UNL1       -0.0016
     12 C           2.6080    0.4093   18.3799 C.ar    1  UNL1        0.0293
     13 C           1.1854    0.7570   18.7038 C.ar    1  UNL1        0.1401
     14 F           0.3740    1.5705   17.7394 F       1  UNL1       -0.2042
     15 C           0.5741    0.2914   19.9920 C.ar    1  UNL1        0.0293
     16 C           1.3854   -0.5220   20.9564 C.ar    1  UNL1       -0.0016
     17 C           6.4125   -3.3890   27.0834 C.3     1  UNL1        0.1096
     18 N           6.0463   -3.4250   25.6293 N.pl3   1  UNL1       -0.3168
     19 H           6.3588   -4.1657   25.0612 H       1  UNL1        0.1482
     20 N           3.5767    1.1192   26.1321 N.pl3   1  UNL1       -0.2824
     21 H           4.2260    1.5170   26.7561 H       1  UNL1        0.1551
     22 C           2.1949    1.6923   26.0211 C.ar    1  UNL1        0.0536
     23 C           1.0282    0.9570   26.6112 C.ar    1  UNL1        0.0164
     24 C          -0.3535    1.5302   26.5002 C.ar    1  UNL1        0.0236
     25 C          -0.5685    2.8387   25.7990 C.ar    1  UNL1        0.1185
     26 C           0.5980    3.5740   25.2089 C.ar    1  UNL1        0.1575
     27 C           1.9799    3.0008   25.3199 C.ar    1  UNL1        0.0531
     28 N          -1.9503    3.4118   25.6880 N.ar    1  UNL1       -0.2053
     29 C          -2.7996    3.4321   24.4518 C.ar    1  UNL1        0.2014
     30 N          -4.0996    4.0981   24.7935 N.ar    1  UNL1       -0.2073
     31 C          -4.0535    4.4895   26.2408 C.ar    1  UNL1        0.1613
     32 C          -5.1443    5.1832   27.0017 C.3     1  UNL1        0.0756
     33 N          -2.7252    4.0653   26.7936 N.ar    1  UNL1       -0.1487
     34 O           0.3831    4.8825   24.5077 O.3     1  UNL1       -0.4699
     35 C           0.2297    4.9178   23.0161 C.3     1  UNL1        0.2525
@<TRIPOS>BOND
     1    17    18    1
     2    18     1    1
     3     1     2   ar
     4     2     3   ar
     5     3    20    1
     6    20    22    1
     7    22    23   ar
     8    23    24   ar
     9    24    25   ar
    10    25    28    1
    11    28    29   ar
    12    29    30   ar
    13    30    31   ar
    14    31    32    1
    15    31    33   ar
    16    25    26   ar
    17    26    34    1
    18    34    35    1
    19    26    27   ar
    20     3     4   ar
    21     4     5   ar
    22     5     6   ar
    23     6     7    1
    24     7     8    1
    25     8     9    1
    26     9    10    1
    27    10    11   ar
    28    11    12   ar
    29    12    13   ar
    30    13    14    1
    31    13    15   ar
    32    15    16   ar
    33     6     1   ar
    34    16    10   ar
    35    27    22   ar
    36     9     5    1
    37    33    28   ar
    38    18    19    1
    39    20    21    1
@<TRIPOS>MOLECULE
*****
 35 39 0 0 0
SMALL
GASTEIGER

@<TRIPOS>ATOM
      1 C           0.5002    2.0496   22.4564 C.ar    1  UNL1        0.1285
      2 N           1.3278    2.4658   23.6363 N.ar    1  UNL1       -0.1992
      3 C           2.6188    1.7620   23.9325 C.ar    1  UNL1        0.2215
      4 N           3.0824    0.6421   23.0489 N.ar    1  UNL1       -0.2179
      5 C           2.2550    0.2259   21.8691 C.ar    1  UNL1        0.0642
      6 C           0.9639    0.9297   21.5728 C.ar    1  UNL1        0.0232
      7 C           0.3651    0.3037   20.3483 C.3     1  UNL1        0.0311
      8 C           1.2861   -0.7870   19.8877 C.3     1  UNL1        0.0151
      9 C           2.4541   -0.8351   20.8276 C.3     1  UNL1        0.0627
     10 C           3.6171   -1.7785   20.7411 C.ar    1  UNL1       -0.0168
     11 C           4.0036   -2.6036   21.9327 C.ar    1  UNL1       -0.0016
     12 C           5.1666   -3.5471   21.8463 C.ar    1  UNL1        0.0293
     13 C           5.9430   -3.6653   20.5684 C.ar    1  UNL1        0.1401
     14 F           7.1060   -4.6087   20.4820 F       1  UNL1       -0.2042
     15 C           5.5564   -2.8401   19.3768 C.ar    1  UNL1        0.0293
     16 C           4.3935   -1.8967   19.4632 C.ar    1  UNL1       -0.0016
     17 C          -1.4134    3.6448   23.1936 C.3     1  UNL1        0.1096
     18 N          -0.7909    2.7535   22.1602 N.pl3   1  UNL1       -0.3168
     19 H          -1.2297    2.6303   21.2876 H       1  UNL1        0.1482
     20 N           3.4464    2.1782   25.1124 N.pl3   1  UNL1       -0.2824
     21 H           3.6209    3.1326   25.2792 H       1  UNL1        0.1551
     22 C           4.0080    1.1400   26.0381 C.ar    1  UNL1        0.0536
     23 C           5.4613    0.7762   25.9638 C.ar    1  UNL1        0.0164
     24 C           6.0230   -0.2619   26.8894 C.ar    1  UNL1        0.0236
     25 C           5.1311   -0.9363   27.8895 C.ar    1  UNL1        0.1185
     26 C           3.6779   -0.5726   27.9638 C.ar    1  UNL1        0.1575
     27 C           3.1163    0.4656   27.0381 C.ar    1  UNL1        0.0531
     28 N           5.6927   -1.9745   28.8151 N.ar    1  UNL1       -0.2053
     29 C           5.9961   -1.7853   30.2719 C.ar    1  UNL1        0.2014
     30 N           6.5405   -3.0780   30.8037 N.ar    1  UNL1       -0.2073
     31 C           6.5735   -4.0660   29.6756 C.ar    1  UNL1        0.1613
     32 C           7.0473   -5.4867   29.7613 C.3     1  UNL1        0.0756
     33 N           6.0496   -3.3840   28.4466 N.ar    1  UNL1       -0.1487
     34 O           2.7861   -1.2469   28.9638 O.3     1  UNL1       -0.4699
     35 C           2.4110   -0.5389   30.2318 C.3     1  UNL1        0.2525
@<TRIPOS>BOND
     1    17    18    1
     2    18     1    1
     3     1     2   ar
     4     2     3   ar
     5     3    20    1
     6    20    22    1
     7    22    23   ar
     8    23    24   ar
     9    24    25   ar
    10    25    28    1
    11    28    29   ar
    12    29    30   ar
    13    30    31   ar
    14    31    32    1
    15    31    33   ar
    16    25    26   ar
    17    26    34    1
    18    34    35    1
    19    26    27   ar
    20     3     4   ar
    21     4     5   ar
    22     5     6   ar
    23     6     7    1
    24     7     8    1
    25     8     9    1
    26     9    10    1
    27    10    11   ar
    28    11    12   ar
    29    12    13   ar
    30    13    14    1
    31    13    15   ar
    32    15    16   ar
    33     6     1   ar
    34    16    10   ar
    35    27    22   ar
    36     9     5    1
    37    33    28   ar
    38    18    19    1
    39    20    21    1
