@<TRIPOS>MOLECULE
*****
 48 54 0 0 0
SMALL
GASTEIGER

@<TRIPOS>ATOM
      1 C           5.2132    0.4070   35.0108 C.3     1  UNL1        0.1543
      2 N           5.4892   -0.5892   33.9240 N.am    1  UNL1       -0.2822
      3 C           6.8930   -1.0529   33.6703 C.2     1  UNL1        0.3043
      4 O           8.0208   -0.5203   34.5035 O.2     1  UNL1       -0.2526
      5 N           7.1690   -2.0491   32.5835 N.am    1  UNL1       -0.2641
      6 C           8.5728   -2.5127   32.3298 C.3     1  UNL1        0.0966
      7 C           8.8488   -3.5090   31.2429 C.3     1  UNL1        0.0415
      8 C           7.7210   -4.0416   30.4097 C.3     1  UNL1        0.0806
      9 C           6.3171   -3.5780   30.6633 C.3     1  UNL1        0.0415
     10 C           6.0411   -2.5818   31.7502 C.3     1  UNL1        0.0966
     11 H           4.7490   -0.9388   33.3771 H       1  UNL1        0.1514
     12 N           7.9969   -5.0378   29.3228 N.am    1  UNL1       -0.2613
     13 C           7.7405   -4.6751   27.8901 C.3     1  UNL1        0.1228
     14 C           8.0165   -5.6714   26.8032 C.ar    1  UNL1        0.0112
     15 C           7.7600   -5.3087   25.3705 C.ar    1  UNL1       -0.0014
     16 C           8.0360   -6.3049   24.2837 C.ar    1  UNL1       -0.0002
     17 C           8.5685   -7.6640   24.6295 C.ar    1  UNL1        0.0013
     18 C           8.8250   -8.0267   26.0622 C.ar    1  UNL1        0.0144
     19 C           8.5490   -7.0304   27.1491 C.ar    1  UNL1        0.0492
     20 N           8.8054   -7.3931   28.5818 N.am    1  UNL1       -0.2684
     21 C           8.5294   -6.3969   29.6686 C.2     1  UNL1        0.3079
     22 O           8.7859   -6.7596   31.1014 O.2     1  UNL1       -0.2522
     23 H           9.1549   -8.2851   28.8088 H       1  UNL1        0.1564
     24 C           5.3885    1.8731   34.7466 C.2     1  UNL1        0.2439
     25 O           6.7273    2.5175   34.9527 O.2     1  UNL1       -0.2731
     26 N           4.2251    2.6948   34.2762 N.am    1  UNL1       -0.2781
     27 C           4.4003    4.1609   34.0120 C.3     1  UNL1        0.0948
     28 C           3.2369    4.9825   33.5416 C.3     1  UNL1        0.0375
     29 C           1.8981    4.3381   33.3355 C.3     1  UNL1        0.0609
     30 C           1.7228    2.8720   33.5998 C.3     1  UNL1        0.0375
     31 C           2.8864    2.0503   34.0701 C.3     1  UNL1        0.0948
     32 N           0.7347    5.1598   32.8652 N.3     1  UNL1       -0.2738
     33 C          -0.2686    5.6745   33.8543 C.3     1  UNL1        0.0720
     34 C          -1.4320    6.4962   33.3840 C.3     1  UNL1        0.0174
     35 C          -1.5922    6.8031   31.9244 C.3     1  UNL1        0.0029
     36 C          -0.5889    6.2883   30.9353 C.3     1  UNL1        0.0174
     37 C           0.5746    5.4666   31.4057 C.3     1  UNL1        0.0720
     38 C           4.7619   -0.0629   36.3620 C.3     1  UNL1        0.0553
     39 C           1.0267    2.4610   38.9464 C.3     1  UNL1        0.0287
     40 C           2.4818    2.1964   38.6959 C.2     1  UNL1       -0.0163
     41 C           2.8943    1.1990   37.6542 C.2     1  UNL1       -0.0105
     42 C           4.3494    0.9345   37.4037 C.2     1  UNL1       -0.0208
     43 C           5.3920    1.6674   38.1949 C.2     1  UNL1       -0.0046
     44 C           4.9795    2.6647   39.2365 C.2     1  UNL1        0.0261
     45 C           5.7751    3.5331   40.1655 C.2     1  UNL1        0.1197
     46 N           4.8117    4.3342   40.9902 N.2     1  UNL1       -0.1508
     47 N           3.4207    3.9611   40.5708 N.2     1  UNL1       -0.1677
     48 C           3.5244    2.9293   39.4870 C.3     1  UNL1        0.1672
@<TRIPOS>BOND
     1    39    40    1
     2    40    41    2
     3    41    42    1
     4    42    38    1
     5     1    38    1
     6     1     2    1
     7     2     3   am
     8     3     4    2
     9     3     5   am
    10     5     6    1
    11     6     7    1
    12     7     8    1
    13     8    12    1
    14    12    13    1
    15    13    14    1
    16    14    15   ar
    17    15    16   ar
    18    16    17   ar
    19    17    18   ar
    20    18    19   ar
    21    19    20    1
    22    20    21   am
    23    21    22    2
    24     8     9    1
    25     9    10    1
    26     1    24    1
    27    24    25    2
    28    24    26   am
    29    26    27    1
    30    27    28    1
    31    28    29    1
    32    29    32    1
    33    32    33    1
    34    33    34    1
    35    34    35    1
    36    35    36    1
    37    36    37    1
    38    29    30    1
    39    30    31    1
    40    42    43    2
    41    43    44    1
    42    44    45    2
    43    45    46    1
    44    46    47    2
    45    47    48    1
    46    48    40    1
    47    10     5    1
    48    31    26    1
    49    48    44    1
    50    21    12   am
    51    37    32    1
    52    19    14   ar
    53     2    11    1
    54    20    23    1
@<TRIPOS>MOLECULE
*****
 48 54 0 0 0
SMALL
GASTEIGER

@<TRIPOS>ATOM
      1 C           3.4950   -0.5202   23.8921 C.3     1  UNL1        0.1543
      2 N           2.2699    0.1922   24.3835 N.am    1  UNL1       -0.2822
      3 C           1.7292    1.3665   23.6228 C.2     1  UNL1        0.3043
      4 O           2.4137    1.8284   22.3706 O.2     1  UNL1       -0.2526
      5 N           0.5041    2.0789   24.1143 N.am    1  UNL1       -0.2641
      6 C          -0.0365    3.2532   23.3535 C.3     1  UNL1        0.0966
      7 C          -1.2617    3.9656   23.8450 C.3     1  UNL1        0.0415
      8 C          -1.9461    3.5037   25.0973 C.3     1  UNL1        0.0806
      9 C          -1.4055    2.3294   25.8580 C.3     1  UNL1        0.0415
     10 C          -0.1804    1.6170   25.3665 C.3     1  UNL1        0.0966
     11 H           1.8206   -0.1109   25.2054 H       1  UNL1        0.1514
     12 N          -3.1712    4.2161   25.5887 N.am    1  UNL1       -0.2613
     13 C          -3.0547    5.2506   26.6686 C.3     1  UNL1        0.1228
     14 C          -4.2799    5.9630   27.1601 C.ar    1  UNL1        0.0112
     15 C          -4.1634    6.9976   28.2399 C.ar    1  UNL1       -0.0014
     16 C          -5.3885    7.7099   28.7314 C.ar    1  UNL1       -0.0002
     17 C          -6.7302    7.3878   28.1430 C.ar    1  UNL1        0.0013
     18 C          -6.8467    6.3532   27.0631 C.ar    1  UNL1        0.0144
     19 C          -5.6215    5.6408   26.5717 C.ar    1  UNL1        0.0492
     20 N          -5.7380    4.6063   25.4918 N.am    1  UNL1       -0.2684
     21 C          -4.5129    3.8939   25.0003 C.2     1  UNL1        0.3079
     22 O          -4.6294    2.8593   23.9205 O.2     1  UNL1       -0.2522
     23 H          -6.6186    4.3948   25.1056 H       1  UNL1        0.1564
     24 C           4.8527   -0.0882   24.3612 C.2     1  UNL1        0.2439
     25 O           5.6997    0.7955   23.4942 O.2     1  UNL1       -0.2731
     26 N           5.3633   -0.5399   25.6973 N.am    1  UNL1       -0.2781
     27 C           6.7210   -0.1079   26.1665 C.3     1  UNL1        0.0948
     28 C           7.2316   -0.5596   27.5025 C.3     1  UNL1        0.0375
     29 C           6.3846   -1.4433   28.3696 C.3     1  UNL1        0.0609
     30 C           5.0269   -1.8753   27.9004 C.3     1  UNL1        0.0375
     31 C           4.5163   -1.4235   26.5642 C.3     1  UNL1        0.0948
     32 N           6.8952   -1.8950   29.7056 N.3     1  UNL1       -0.2738
     33 C           6.6243   -3.2924   30.1788 C.3     1  UNL1        0.0720
     34 C           7.1350   -3.7441   31.5148 C.3     1  UNL1        0.0174
     35 C           7.9166   -2.7984   32.3779 C.3     1  UNL1        0.0029
     36 C           8.1875   -1.4010   31.9048 C.3     1  UNL1        0.0174
     37 C           7.6768   -0.9493   30.5686 C.3     1  UNL1        0.0720
     38 C           3.3624   -1.6646   22.9314 C.3     1  UNL1        0.0553
     39 C           2.5420    0.1234   18.1220 C.3     1  UNL1        0.0287
     40 C           3.4036   -0.6125   19.1050 C.2     1  UNL1       -0.0163
     41 C           2.9522   -0.7706   20.5267 C.2     1  UNL1       -0.0105
     42 C           3.8137   -1.5065   21.5097 C.2     1  UNL1       -0.0208
     43 C           5.1267   -2.0842   21.0709 C.2     1  UNL1       -0.0046
     44 C           5.5780   -1.9261   19.6492 C.2     1  UNL1        0.0261
     45 C           6.8129   -2.3840   18.9313 C.2     1  UNL1        0.1197
     46 N           6.7146   -1.9311   17.5047 N.2     1  UNL1       -0.1508
     47 N           5.4189   -1.1933   17.3409 N.2     1  UNL1       -0.1677
     48 C           4.7164   -1.1903   18.6662 C.3     1  UNL1        0.1672
@<TRIPOS>BOND
     1    39    40    1
     2    40    41    2
     3    41    42    1
     4    42    38    1
     5     1    38    1
     6     1     2    1
     7     2     3   am
     8     3     4    2
     9     3     5   am
    10     5     6    1
    11     6     7    1
    12     7     8    1
    13     8    12    1
    14    12    13    1
    15    13    14    1
    16    14    15   ar
    17    15    16   ar
    18    16    17   ar
    19    17    18   ar
    20    18    19   ar
    21    19    20    1
    22    20    21   am
    23    21    22    2
    24     8     9    1
    25     9    10    1
    26     1    24    1
    27    24    25    2
    28    24    26   am
    29    26    27    1
    30    27    28    1
    31    28    29    1
    32    29    32    1
    33    32    33    1
    34    33    34    1
    35    34    35    1
    36    35    36    1
    37    36    37    1
    38    29    30    1
    39    30    31    1
    40    42    43    2
    41    43    44    1
    42    44    45    2
    43    45    46    1
    44    46    47    2
    45    47    48    1
    46    48    40    1
    47    10     5    1
    48    31    26    1
    49    48    44    1
    50    21    12   am
    51    37    32    1
    52    19    14   ar
    53     2    11    1
    54    20    23    1
@<TRIPOS>MOLECULE
*****
 48 54 0 0 0
SMALL
GASTEIGER

@<TRIPOS>ATOM
      1 C           3.6539   -0.5866   23.9778 C.3     1  UNL1        0.1543
      2 N           2.4278    0.1347   24.4537 N.am    1  UNL1       -0.2822
      3 C           1.9691    1.3781   23.7512 C.2     1  UNL1        0.3043
      4 O           2.7364    1.9002   22.5728 O.2     1  UNL1       -0.2526
      5 N           0.7430    2.0993   24.2270 N.am    1  UNL1       -0.2641
      6 C           0.2843    3.3428   23.5245 C.3     1  UNL1        0.0966
      7 C          -0.9418    4.0640   24.0005 C.3     1  UNL1        0.0415
      8 C          -1.7092    3.5419   25.1788 C.3     1  UNL1        0.0806
      9 C          -1.2504    2.2985   25.8813 C.3     1  UNL1        0.0415
     10 C          -0.0244    1.5772   25.4054 C.3     1  UNL1        0.0966
     11 H           1.9242   -0.2080   25.2271 H       1  UNL1        0.1514
     12 N          -2.9352    4.2632   25.6547 N.am    1  UNL1       -0.2613
     13 C          -4.1945    4.2193   24.8408 C.3     1  UNL1        0.1228
     14 C          -5.4206    4.9406   25.3168 C.ar    1  UNL1        0.0112
     15 C          -6.6799    4.8967   24.5029 C.ar    1  UNL1       -0.0014
     16 C          -7.9059    5.6180   24.9788 C.ar    1  UNL1       -0.0002
     17 C          -7.8728    6.3832   26.2685 C.ar    1  UNL1        0.0013
     18 C          -6.6135    6.4271   27.0824 C.ar    1  UNL1        0.0144
     19 C          -5.3874    5.7058   26.6064 C.ar    1  UNL1        0.0492
     20 N          -4.1281    5.7497   27.4203 N.am    1  UNL1       -0.2684
     21 C          -2.9021    5.0284   26.9444 C.2     1  UNL1        0.3079
     22 O          -1.6428    5.0723   27.7582 O.2     1  UNL1       -0.2522
     23 H          -4.1063    6.2519   28.2667 H       1  UNL1        0.1564
     24 C           5.0112   -0.1410   24.4353 C.2     1  UNL1        0.2439
     25 O           5.8316    0.7711   23.5721 O.2     1  UNL1       -0.2731
     26 N           5.5480   -0.6076   25.7559 N.am    1  UNL1       -0.2781
     27 C           6.9053   -0.1620   26.2134 C.3     1  UNL1        0.0948
     28 C           7.4422   -0.6285   27.5340 C.3     1  UNL1        0.0375
     29 C           6.6218   -1.5407   28.3972 C.3     1  UNL1        0.0609
     30 C           5.2645   -1.9863   27.9397 C.3     1  UNL1        0.0375
     31 C           4.7276   -1.5197   26.6190 C.3     1  UNL1        0.0948
     32 N           7.1586   -2.0072   29.7178 N.3     1  UNL1       -0.2738
     33 C           6.2784   -2.7807   30.6543 C.3     1  UNL1        0.0720
     34 C           6.8153   -3.2472   31.9749 C.3     1  UNL1        0.0174
     35 C           8.2325   -2.9403   32.3591 C.3     1  UNL1        0.0029
     36 C           9.1127   -2.1669   31.4226 C.3     1  UNL1        0.0174
     37 C           8.5757   -1.7003   30.1020 C.3     1  UNL1        0.0720
     38 C           3.5227   -1.7535   23.0444 C.3     1  UNL1        0.0553
     39 C           2.4459    0.0228   18.2815 C.3     1  UNL1        0.0287
     40 C           3.3565   -0.7152   19.2176 C.2     1  UNL1       -0.0163
     41 C           2.9843   -0.8654   20.6630 C.2     1  UNL1       -0.0105
     42 C           3.8948   -1.6033   21.5991 C.2     1  UNL1       -0.0208
     43 C           5.1775   -2.1912   21.0898 C.2     1  UNL1       -0.0046
     44 C           5.5496   -2.0410   19.6445 C.2     1  UNL1        0.0261
     45 C           6.7396   -2.5093   18.8605 C.2     1  UNL1        0.1197
     46 N           6.5645   -2.0608   17.4399 N.2     1  UNL1       -0.1508
     47 N           5.2664   -1.3153   17.3459 N.2     1  UNL1       -0.1677
     48 C           4.6391   -1.3030   18.7084 C.3     1  UNL1        0.1672
@<TRIPOS>BOND
     1    39    40    1
     2    40    41    2
     3    41    42    1
     4    42    38    1
     5     1    38    1
     6     1     2    1
     7     2     3   am
     8     3     4    2
     9     3     5   am
    10     5     6    1
    11     6     7    1
    12     7     8    1
    13     8    12    1
    14    12    13    1
    15    13    14    1
    16    14    15   ar
    17    15    16   ar
    18    16    17   ar
    19    17    18   ar
    20    18    19   ar
    21    19    20    1
    22    20    21   am
    23    21    22    2
    24     8     9    1
    25     9    10    1
    26     1    24    1
    27    24    25    2
    28    24    26   am
    29    26    27    1
    30    27    28    1
    31    28    29    1
    32    29    32    1
    33    32    33    1
    34    33    34    1
    35    34    35    1
    36    35    36    1
    37    36    37    1
    38    29    30    1
    39    30    31    1
    40    42    43    2
    41    43    44    1
    42    44    45    2
    43    45    46    1
    44    46    47    2
    45    47    48    1
    46    48    40    1
    47    10     5    1
    48    31    26    1
    49    48    44    1
    50    21    12   am
    51    37    32    1
    52    19    14   ar
    53     2    11    1
    54    20    23    1
@<TRIPOS>MOLECULE
*****
 48 54 0 0 0
SMALL
GASTEIGER

@<TRIPOS>ATOM
      1 C           6.1336   -1.1733   31.2159 C.3     1  UNL1        0.1543
      2 N           5.1859   -0.5273   30.2492 N.am    1  UNL1       -0.2822
      3 C           3.7052   -0.6470   30.4570 C.2     1  UNL1        0.3043
      4 O           3.1722   -1.4126   31.6315 O.2     1  UNL1       -0.2526
      5 N           2.7576   -0.0009   29.4903 N.am    1  UNL1       -0.2641
      6 C           1.2769   -0.1206   29.6981 C.3     1  UNL1        0.0966
      7 C           0.3292    0.5255   28.7313 C.3     1  UNL1        0.0415
      8 C           0.8623    1.2912   27.5568 C.3     1  UNL1        0.0806
      9 C           2.3430    1.4108   27.3490 C.3     1  UNL1        0.0415
     10 C           3.2906    0.7648   28.3157 C.3     1  UNL1        0.0966
     11 H           5.5358   -0.0247   29.4783 H       1  UNL1        0.1514
     12 N          -0.0854    1.9372   26.5901 N.am    1  UNL1       -0.2613
     13 C          -1.3401    2.5885   27.0916 C.3     1  UNL1        0.1228
     14 C          -2.2878    3.2346   26.1248 C.ar    1  UNL1        0.0112
     15 C          -3.5425    3.8859   26.6263 C.ar    1  UNL1       -0.0014
     16 C          -4.4901    4.5320   25.6596 C.ar    1  UNL1       -0.0002
     17 C          -4.1831    4.5267   24.1913 C.ar    1  UNL1        0.0013
     18 C          -2.9284    3.8753   23.6898 C.ar    1  UNL1        0.0144
     19 C          -1.9807    3.2293   24.6566 C.ar    1  UNL1        0.0492
     20 N          -0.7260    2.5779   24.1551 N.am    1  UNL1       -0.2684
     21 C           0.2216    1.9319   25.1218 C.2     1  UNL1        0.3079
     22 O           1.4763    1.2805   24.6203 O.2     1  UNL1       -0.2522
     23 H          -0.5245    2.5744   23.1915 H       1  UNL1        0.1564
     24 C           6.2065   -2.6687   31.3088 C.2     1  UNL1        0.2439
     25 O           5.8448   -3.3589   32.5906 O.2     1  UNL1       -0.2731
     26 N           6.6411   -3.4737   30.1202 N.am    1  UNL1       -0.2781
     27 C           6.7140   -4.9690   30.2131 C.3     1  UNL1        0.0948
     28 C           7.1486   -5.7741   29.0245 C.3     1  UNL1        0.0375
     29 C           7.5103   -5.0838   27.7427 C.3     1  UNL1        0.0609
     30 C           7.4374   -3.5885   27.6498 C.3     1  UNL1        0.0375
     31 C           7.0028   -2.7834   28.8385 C.3     1  UNL1        0.0948
     32 N           7.9449   -5.8889   26.5541 N.3     1  UNL1       -0.2738
     33 C           7.5932   -5.4317   25.1694 C.3     1  UNL1        0.0720
     34 C           8.0277   -6.2368   23.9807 C.3     1  UNL1        0.0174
     35 C           8.8142   -7.4990   24.1767 C.3     1  UNL1        0.0029
     36 C           9.1659   -7.9562   25.5614 C.3     1  UNL1        0.0174
     37 C           8.7313   -7.1510   26.7501 C.3     1  UNL1        0.0720
     38 C           7.0084   -0.3240   32.0897 C.3     1  UNL1        0.0553
     39 C           7.9491   -0.3192   37.2000 C.3     1  UNL1        0.0287
     40 C           7.0494    0.0053   36.0444 C.2     1  UNL1       -0.0163
     41 C           7.4788   -0.3216   34.6448 C.2     1  UNL1       -0.0105
     42 C           6.5791    0.0029   33.4892 C.2     1  UNL1       -0.0208
     43 C           5.2501    0.6543   33.7333 C.2     1  UNL1       -0.0046
     44 C           4.8208    0.9812   35.1328 C.2     1  UNL1        0.0261
     45 C           3.5774    1.6187   35.6783 C.2     1  UNL1        0.1197
     46 N           3.7085    1.6881   37.1709 N.2     1  UNL1       -0.1508
     47 N           5.0330    1.0936   37.5480 N.2     1  UNL1       -0.1677
     48 C           5.7205    0.6567   36.2884 C.3     1  UNL1        0.1672
@<TRIPOS>BOND
     1    39    40    1
     2    40    41    2
     3    41    42    1
     4    42    38    1
     5     1    38    1
     6     1     2    1
     7     2     3   am
     8     3     4    2
     9     3     5   am
    10     5     6    1
    11     6     7    1
    12     7     8    1
    13     8    12    1
    14    12    13    1
    15    13    14    1
    16    14    15   ar
    17    15    16   ar
    18    16    17   ar
    19    17    18   ar
    20    18    19   ar
    21    19    20    1
    22    20    21   am
    23    21    22    2
    24     8     9    1
    25     9    10    1
    26     1    24    1
    27    24    25    2
    28    24    26   am
    29    26    27    1
    30    27    28    1
    31    28    29    1
    32    29    32    1
    33    32    33    1
    34    33    34    1
    35    34    35    1
    36    35    36    1
    37    36    37    1
    38    29    30    1
    39    30    31    1
    40    42    43    2
    41    43    44    1
    42    44    45    2
    43    45    46    1
    44    46    47    2
    45    47    48    1
    46    48    40    1
    47    10     5    1
    48    31    26    1
    49    48    44    1
    50    21    12   am
    51    37    32    1
    52    19    14   ar
    53     2    11    1
    54    20    23    1
@<TRIPOS>MOLECULE
*****
 48 54 0 0 0
SMALL
GASTEIGER

@<TRIPOS>ATOM
      1 C           0.3837    1.5904   20.5016 C.3     1  UNL1        0.1543
      2 N           0.4304    1.5819   22.0009 N.am    1  UNL1       -0.2822
      3 C           1.7226    1.8536   22.7125 C.2     1  UNL1        0.3043
      4 O           2.9681    2.1337   21.9250 O.2     1  UNL1       -0.2526
      5 N           1.7693    1.8451   24.2117 N.am    1  UNL1       -0.2641
      6 C           3.0615    2.1167   24.9234 C.3     1  UNL1        0.0966
      7 C           3.1082    2.1082   26.4227 C.3     1  UNL1        0.0415
      8 C           1.8627    1.8281   27.2103 C.3     1  UNL1        0.0806
      9 C           0.5705    1.5564   26.4986 C.3     1  UNL1        0.0415
     10 C           0.5238    1.5649   24.9994 C.3     1  UNL1        0.0966
     11 H          -0.3870    1.3980   22.5178 H       1  UNL1        0.1514
     12 N           1.9094    1.8196   28.7095 N.am    1  UNL1       -0.2613
     13 C           1.6824    3.0899   29.4741 C.3     1  UNL1        0.1228
     14 C           1.7291    3.0813   30.9734 C.ar    1  UNL1        0.0112
     15 C           1.5021    4.3517   31.7381 C.ar    1  UNL1       -0.0014
     16 C           1.5488    4.3432   33.2373 C.ar    1  UNL1       -0.0002
     17 C           1.8226    3.0643   33.9720 C.ar    1  UNL1        0.0013
     18 C           2.0496    1.7940   33.2073 C.ar    1  UNL1        0.0144
     19 C           2.0029    1.8025   31.7080 C.ar    1  UNL1        0.0492
     20 N           2.2299    0.5322   30.9433 N.am    1  UNL1       -0.2684
     21 C           2.1832    0.5407   29.4441 C.2     1  UNL1        0.3079
     22 O           2.4103   -0.7296   28.6794 O.2     1  UNL1       -0.2522
     23 H           2.4096   -0.3072   31.4254 H       1  UNL1        0.1564
     24 C           0.1834    2.8815   19.7648 C.2     1  UNL1        0.2439
     25 O           1.3419    3.5390   19.0751 O.2     1  UNL1       -0.2731
     26 N          -1.1753    3.5152   19.7177 N.am    1  UNL1       -0.2781
     27 C          -1.3756    4.8063   18.9809 C.3     1  UNL1        0.0948
     28 C          -2.7344    5.4399   18.9337 C.3     1  UNL1        0.0375
     29 C          -3.8929    4.7825   19.6234 C.3     1  UNL1        0.0609
     30 C          -3.6926    3.4914   20.3603 C.3     1  UNL1        0.0375
     31 C          -2.3338    2.8577   20.4074 C.3     1  UNL1        0.0948
     32 N          -5.2516    5.4161   19.5763 N.3     1  UNL1       -0.2738
     33 C          -6.4068    4.6700   18.9773 C.3     1  UNL1        0.0720
     34 C          -7.7655    5.3036   18.9301 C.3     1  UNL1        0.0174
     35 C          -7.9692    6.6835   19.4821 C.3     1  UNL1        0.0029
     36 C          -6.8140    7.4297   20.0811 C.3     1  UNL1        0.0174
     37 C          -5.4552    6.7959   20.1282 C.3     1  UNL1        0.0720
     38 C           0.5373    0.3078   19.7392 C.3     1  UNL1        0.0553
     39 C           4.3975   -2.8706   21.1523 C.3     1  UNL1        0.0287
     40 C           3.8336   -1.8525   20.2060 C.2     1  UNL1       -0.0163
     41 C           2.4674   -1.2814   20.4458 C.2     1  UNL1       -0.0105
     42 C           1.9034   -0.2633   19.4995 C.2     1  UNL1       -0.0208
     43 C           2.7057    0.1838   18.3135 C.2     1  UNL1       -0.0046
     44 C           4.0719   -0.3873   18.0738 C.2     1  UNL1        0.0261
     45 C           5.0883   -0.1408   16.9986 C.2     1  UNL1        0.1197
     46 N           6.2804   -1.0065   17.2803 N.2     1  UNL1       -0.1508
     47 N           6.0007   -1.7881   18.5297 N.2     1  UNL1       -0.1677
     48 C           4.6358   -1.4054   19.0201 C.3     1  UNL1        0.1672
@<TRIPOS>BOND
     1    39    40    1
     2    40    41    2
     3    41    42    1
     4    42    38    1
     5     1    38    1
     6     1     2    1
     7     2     3   am
     8     3     4    2
     9     3     5   am
    10     5     6    1
    11     6     7    1
    12     7     8    1
    13     8    12    1
    14    12    13    1
    15    13    14    1
    16    14    15   ar
    17    15    16   ar
    18    16    17   ar
    19    17    18   ar
    20    18    19   ar
    21    19    20    1
    22    20    21   am
    23    21    22    2
    24     8     9    1
    25     9    10    1
    26     1    24    1
    27    24    25    2
    28    24    26   am
    29    26    27    1
    30    27    28    1
    31    28    29    1
    32    29    32    1
    33    32    33    1
    34    33    34    1
    35    34    35    1
    36    35    36    1
    37    36    37    1
    38    29    30    1
    39    30    31    1
    40    42    43    2
    41    43    44    1
    42    44    45    2
    43    45    46    1
    44    46    47    2
    45    47    48    1
    46    48    40    1
    47    10     5    1
    48    31    26    1
    49    48    44    1
    50    21    12   am
    51    37    32    1
    52    19    14   ar
    53     2    11    1
    54    20    23    1
@<TRIPOS>MOLECULE
*****
 48 54 0 0 0
SMALL
GASTEIGER

@<TRIPOS>ATOM
      1 C           3.1567    0.9190   22.6626 C.3     1  UNL1        0.1543
      2 N           3.2312    1.1062   24.1490 N.am    1  UNL1       -0.2822
      3 C           1.9790    1.0649   24.9738 C.2     1  UNL1        0.3043
      4 O           0.6523    0.8364   24.3122 O.2     1  UNL1       -0.2526
      5 N           2.0534    1.2520   26.4602 N.am    1  UNL1       -0.2641
      6 C           0.8012    1.2107   27.2850 C.3     1  UNL1        0.0966
      7 C           0.8758    1.3979   28.7715 C.3     1  UNL1        0.0415
      8 C           2.2024    1.6264   29.4330 C.3     1  UNL1        0.0806
      9 C           3.4546    1.6677   28.6083 C.3     1  UNL1        0.0415
     10 C           3.3801    1.4805   27.1219 C.3     1  UNL1        0.0966
     11 H           4.1019    1.2562   24.5833 H       1  UNL1        0.1514
     12 N           2.2769    1.8135   30.9194 N.am    1  UNL1       -0.2613
     13 C           1.8618    3.1180   31.5328 C.3     1  UNL1        0.1228
     14 C           1.9363    3.3051   33.0193 C.ar    1  UNL1        0.0112
     15 C           1.5213    4.6095   33.6327 C.ar    1  UNL1       -0.0014
     16 C           1.5957    4.7967   35.1191 C.ar    1  UNL1       -0.0002
     17 C           2.0852    3.6794   35.9922 C.ar    1  UNL1        0.0013
     18 C           2.5003    2.3750   35.3788 C.ar    1  UNL1        0.0144
     19 C           2.4258    2.1878   33.8923 C.ar    1  UNL1        0.0492
     20 N           2.8408    0.8834   33.2789 N.am    1  UNL1       -0.2684
     21 C           2.7664    0.6963   31.7925 C.2     1  UNL1        0.3079
     22 O           3.1814   -0.6081   31.1791 O.2     1  UNL1       -0.2522
     23 H           3.1621    0.1502   33.8519 H       1  UNL1        0.1564
     24 C           3.1575    2.1135   21.7553 C.2     1  UNL1        0.2439
     25 O           4.4132    2.9124   21.5682 O.2     1  UNL1       -0.2731
     26 N           1.9026    2.5091   21.0352 N.am    1  UNL1       -0.2781
     27 C           1.9033    3.7036   20.1279 C.3     1  UNL1        0.0948
     28 C           0.6484    4.0992   19.4077 C.3     1  UNL1        0.0375
     29 C          -0.6073    3.3003   19.5949 C.3     1  UNL1        0.0609
     30 C          -0.6081    2.1058   20.5022 C.3     1  UNL1        0.0375
     31 C           0.6469    1.7102   21.2224 C.3     1  UNL1        0.0948
     32 N          -1.8622    3.6959   18.8747 N.3     1  UNL1       -0.2738
     33 C          -3.1683    3.7375   19.6113 C.3     1  UNL1        0.0720
     34 C          -4.4232    4.1331   18.8911 C.3     1  UNL1        0.0174
     35 C          -4.3721    4.4871   17.4343 C.3     1  UNL1        0.0029
     36 C          -3.0661    4.4454   16.6978 C.3     1  UNL1        0.0174
     37 C          -1.8111    4.0498   17.4180 C.3     1  UNL1        0.0720
     38 C           3.0815   -0.4627   22.0835 C.3     1  UNL1        0.0553
     39 C           3.6170   -0.8591   16.9302 C.3     1  UNL1        0.0287
     40 C           4.1808   -1.0191   18.3110 C.2     1  UNL1       -0.0163
     41 C           3.3492   -0.6609   19.5069 C.2     1  UNL1       -0.0105
     42 C           3.9131   -0.8209   20.8876 C.2     1  UNL1       -0.0208
     43 C           5.3085   -1.3393   21.0725 C.2     1  UNL1       -0.0046
     44 C           6.1400   -1.6975   19.8766 C.2     1  UNL1        0.0261
     45 C           7.5371   -2.2283   19.7481 C.2     1  UNL1        0.1197
     46 N           7.8367   -2.3963   18.2879 N.2     1  UNL1       -0.1508
     47 N           6.6248   -1.9693   17.5140 N.2     1  UNL1       -0.1677
     48 C           5.5762   -1.5375   18.4958 C.3     1  UNL1        0.1672
@<TRIPOS>BOND
     1    39    40    1
     2    40    41    2
     3    41    42    1
     4    42    38    1
     5     1    38    1
     6     1     2    1
     7     2     3   am
     8     3     4    2
     9     3     5   am
    10     5     6    1
    11     6     7    1
    12     7     8    1
    13     8    12    1
    14    12    13    1
    15    13    14    1
    16    14    15   ar
    17    15    16   ar
    18    16    17   ar
    19    17    18   ar
    20    18    19   ar
    21    19    20    1
    22    20    21   am
    23    21    22    2
    24     8     9    1
    25     9    10    1
    26     1    24    1
    27    24    25    2
    28    24    26   am
    29    26    27    1
    30    27    28    1
    31    28    29    1
    32    29    32    1
    33    32    33    1
    34    33    34    1
    35    34    35    1
    36    35    36    1
    37    36    37    1
    38    29    30    1
    39    30    31    1
    40    42    43    2
    41    43    44    1
    42    44    45    2
    43    45    46    1
    44    46    47    2
    45    47    48    1
    46    48    40    1
    47    10     5    1
    48    31    26    1
    49    48    44    1
    50    21    12   am
    51    37    32    1
    52    19    14   ar
    53     2    11    1
    54    20    23    1
@<TRIPOS>MOLECULE
*****
 48 54 0 0 0
SMALL
GASTEIGER

@<TRIPOS>ATOM
      1 C           1.0683    3.0946   24.3681 C.3     1  UNL1        0.1543
      2 N           1.8623    1.8287   24.2387 N.am    1  UNL1       -0.2822
      3 C           3.3078    1.8058   24.6386 C.2     1  UNL1        0.3043
      4 O           3.9593    3.0489   25.1680 O.2     1  UNL1       -0.2526
      5 N           4.1019    0.5398   24.5093 N.am    1  UNL1       -0.2641
      6 C           5.5474    0.5170   24.9092 C.3     1  UNL1        0.0966
      7 C           6.3414   -0.7491   24.7798 C.3     1  UNL1        0.0415
      8 C           5.6899   -1.9922   24.2505 C.3     1  UNL1        0.0806
      9 C           4.2444   -1.9693   23.8505 C.3     1  UNL1        0.0415
     10 C           3.4504   -0.7034   23.9799 C.3     1  UNL1        0.0966
     11 H           1.4347    1.0128   23.8912 H       1  UNL1        0.1514
     12 N           6.4840   -3.2582   24.1211 N.am    1  UNL1       -0.2613
     13 C           6.5883   -4.2002   25.2837 C.3     1  UNL1        0.1228
     14 C           7.3824   -5.4662   25.1543 C.ar    1  UNL1        0.0112
     15 C           7.4867   -6.4083   26.3169 C.ar    1  UNL1       -0.0014
     16 C           8.2808   -7.6742   26.1875 C.ar    1  UNL1       -0.0002
     17 C           8.9705   -7.9982   24.8955 C.ar    1  UNL1        0.0013
     18 C           8.8662   -7.0562   23.7329 C.ar    1  UNL1        0.0144
     19 C           8.0721   -5.7902   23.8623 C.ar    1  UNL1        0.0492
     20 N           7.9678   -4.8481   22.6997 N.am    1  UNL1       -0.2684
     21 C           7.1738   -3.5822   22.8290 C.2     1  UNL1        0.3079
     22 O           7.0694   -2.6401   21.6664 O.2     1  UNL1       -0.2522
     23 H           8.4205   -5.0607   21.8517 H       1  UNL1        0.1564
     24 C           1.1727    4.1565   23.3138 C.2     1  UNL1        0.2439
     25 O           2.1906    5.2501   23.4490 O.2     1  UNL1       -0.2731
     26 N           0.2594    4.1250   22.1244 N.am    1  UNL1       -0.2781
     27 C           0.3638    5.1869   21.0702 C.3     1  UNL1        0.0948
     28 C          -0.5495    5.1553   19.8808 C.3     1  UNL1        0.0375
     29 C          -1.5674    4.0618   19.7455 C.3     1  UNL1        0.0609
     30 C          -1.6719    2.9999   20.7998 C.3     1  UNL1        0.0375
     31 C          -0.7584    3.0315   21.9892 C.3     1  UNL1        0.0948
     32 N          -2.4807    4.0303   18.5561 N.3     1  UNL1       -0.2738
     33 C          -3.9612    3.8882   18.7509 C.3     1  UNL1        0.0720
     34 C          -4.8746    3.8567   17.5615 C.3     1  UNL1        0.0174
     35 C          -4.3075    3.9672   16.1772 C.3     1  UNL1        0.0029
     36 C          -2.8270    4.1092   15.9824 C.3     1  UNL1        0.0174
     37 C          -1.9136    4.1408   17.1719 C.3     1  UNL1        0.0720
     38 C           0.1697    3.2987   25.5517 C.3     1  UNL1        0.0553
     39 C          -1.2460   -0.5294   28.7675 C.3     1  UNL1        0.0287
     40 C          -0.3165    0.5938   28.4148 C.2     1  UNL1       -0.0163
     41 C          -0.5382    1.3847   27.1596 C.2     1  UNL1       -0.0105
     42 C           0.3914    2.5079   26.8068 C.2     1  UNL1       -0.0208
     43 C           1.5426    2.8401   27.7093 C.2     1  UNL1       -0.0046
     44 C           1.7643    2.0493   28.9644 C.2     1  UNL1        0.0261
     45 C           2.8054    2.1445   30.0401 C.2     1  UNL1        0.1197
     46 N           2.5193    1.0802   31.0576 N.2     1  UNL1       -0.1508
     47 N           1.3014    0.3272   30.6108 N.2     1  UNL1       -0.1677
     48 C           0.8347    0.9261   29.3171 C.3     1  UNL1        0.1672
@<TRIPOS>BOND
     1    39    40    1
     2    40    41    2
     3    41    42    1
     4    42    38    1
     5     1    38    1
     6     1     2    1
     7     2     3   am
     8     3     4    2
     9     3     5   am
    10     5     6    1
    11     6     7    1
    12     7     8    1
    13     8    12    1
    14    12    13    1
    15    13    14    1
    16    14    15   ar
    17    15    16   ar
    18    16    17   ar
    19    17    18   ar
    20    18    19   ar
    21    19    20    1
    22    20    21   am
    23    21    22    2
    24     8     9    1
    25     9    10    1
    26     1    24    1
    27    24    25    2
    28    24    26   am
    29    26    27    1
    30    27    28    1
    31    28    29    1
    32    29    32    1
    33    32    33    1
    34    33    34    1
    35    34    35    1
    36    35    36    1
    37    36    37    1
    38    29    30    1
    39    30    31    1
    40    42    43    2
    41    43    44    1
    42    44    45    2
    43    45    46    1
    44    46    47    2
    45    47    48    1
    46    48    40    1
    47    10     5    1
    48    31    26    1
    49    48    44    1
    50    21    12   am
    51    37    32    1
    52    19    14   ar
    53     2    11    1
    54    20    23    1
@<TRIPOS>MOLECULE
*****
 48 54 0 0 0
SMALL
GASTEIGER

@<TRIPOS>ATOM
      1 C          -1.6702    3.7840   26.5867 C.3     1  UNL1        0.1543
      2 N          -0.6148    3.4778   27.6076 N.am    1  UNL1       -0.2822
      3 C          -0.2251    2.0551   27.8800 C.2     1  UNL1        0.3043
      4 O          -0.8910    0.9387   27.1315 O.2     1  UNL1       -0.2526
      5 N           0.8303    1.7489   28.9008 N.am    1  UNL1       -0.2641
      6 C           1.2200    0.3262   29.1732 C.3     1  UNL1        0.0966
      7 C           2.2755    0.0200   30.1941 C.3     1  UNL1        0.0415
      8 C           2.9414    1.1364   30.9425 C.3     1  UNL1        0.0806
      9 C           2.5517    2.5591   30.6701 C.3     1  UNL1        0.0415
     10 C           1.4962    2.8653   29.6493 C.3     1  UNL1        0.0966
     11 H          -0.1777    4.2105   28.0988 H       1  UNL1        0.1514
     12 N           3.9968    0.8302   31.9633 N.am    1  UNL1       -0.2613
     13 C           3.6486    0.8197   33.4223 C.3     1  UNL1        0.1228
     14 C           4.7041    0.5134   34.4432 C.ar    1  UNL1        0.0112
     15 C           4.3559    0.5029   35.9021 C.ar    1  UNL1       -0.0014
     16 C           5.4113    0.1966   36.9230 C.ar    1  UNL1       -0.0002
     17 C           6.8152   -0.0991   36.4849 C.ar    1  UNL1        0.0013
     18 C           7.1634   -0.0886   35.0259 C.ar    1  UNL1        0.0144
     19 C           6.1079    0.2177   34.0050 C.ar    1  UNL1        0.0492
     20 N           6.4561    0.2282   32.5461 N.am    1  UNL1       -0.2684
     21 C           5.4007    0.5344   31.5252 C.2     1  UNL1        0.3079
     22 O           5.7489    0.5449   30.0662 O.2     1  UNL1       -0.2522
     23 H           7.3775    0.0341   32.2585 H       1  UNL1        0.1564
     24 C          -1.3415    4.6447   25.4030 C.2     1  UNL1        0.2439
     25 O          -1.6779    6.1064   25.4219 O.2     1  UNL1       -0.2731
     26 N          -0.6764    4.0437   24.2003 N.am    1  UNL1       -0.2781
     27 C          -0.3477    4.9043   23.0166 C.3     1  UNL1        0.0948
     28 C           0.3174    4.3033   21.8140 C.3     1  UNL1        0.0375
     29 C           0.6538    2.8416   21.7950 C.3     1  UNL1        0.0609
     30 C           0.3251    1.9810   22.9787 C.3     1  UNL1        0.0375
     31 C          -0.3400    2.5820   24.1814 C.3     1  UNL1        0.0948
     32 N           1.3189    2.2406   20.5924 N.3     1  UNL1       -0.2738
     33 C           2.7225    2.6329   20.2371 C.3     1  UNL1        0.0720
     34 C           3.3876    2.0319   19.0345 C.3     1  UNL1        0.0174
     35 C           2.6491    1.0386   18.1870 C.3     1  UNL1        0.0029
     36 C           1.2456    0.6463   18.5423 C.3     1  UNL1        0.0174
     37 C           0.5805    1.2474   19.7450 C.3     1  UNL1        0.0720
     38 C          -3.0545    3.2296   26.7496 C.3     1  UNL1        0.0553
     39 C          -6.7389    6.8810   27.0550 C.3     1  UNL1        0.0287
     40 C          -6.0678    5.7727   26.2991 C.2     1  UNL1       -0.0163
     41 C          -4.8967    5.0553   26.9024 C.2     1  UNL1       -0.0105
     42 C          -4.2256    3.9471   26.1464 C.2     1  UNL1       -0.0208
     43 C          -4.7255    3.5563   24.7872 C.2     1  UNL1       -0.0046
     44 C          -5.8966    4.2738   24.1840 C.2     1  UNL1        0.0261
     45 C          -6.6067    4.1107   22.8728 C.2     1  UNL1        0.1197
     46 N          -7.7168    5.1182   22.8184 N.2     1  UNL1       -0.1508
     47 N          -7.6926    5.9038   24.0960 N.2     1  UNL1       -0.1677
     48 C          -6.5677    5.3820   24.9399 C.3     1  UNL1        0.1672
@<TRIPOS>BOND
     1    39    40    1
     2    40    41    2
     3    41    42    1
     4    42    38    1
     5     1    38    1
     6     1     2    1
     7     2     3   am
     8     3     4    2
     9     3     5   am
    10     5     6    1
    11     6     7    1
    12     7     8    1
    13     8    12    1
    14    12    13    1
    15    13    14    1
    16    14    15   ar
    17    15    16   ar
    18    16    17   ar
    19    17    18   ar
    20    18    19   ar
    21    19    20    1
    22    20    21   am
    23    21    22    2
    24     8     9    1
    25     9    10    1
    26     1    24    1
    27    24    25    2
    28    24    26   am
    29    26    27    1
    30    27    28    1
    31    28    29    1
    32    29    32    1
    33    32    33    1
    34    33    34    1
    35    34    35    1
    36    35    36    1
    37    36    37    1
    38    29    30    1
    39    30    31    1
    40    42    43    2
    41    43    44    1
    42    44    45    2
    43    45    46    1
    44    46    47    2
    45    47    48    1
    46    48    40    1
    47    10     5    1
    48    31    26    1
    49    48    44    1
    50    21    12   am
    51    37    32    1
    52    19    14   ar
    53     2    11    1
    54    20    23    1
@<TRIPOS>MOLECULE
*****
 48 54 0 0 0
SMALL
GASTEIGER

@<TRIPOS>ATOM
      1 C           2.4149    1.0202   22.6147 C.3     1  UNL1        0.1543
      2 N           2.5768    1.1981   24.0952 N.am    1  UNL1       -0.2822
      3 C           1.3734    1.1690   24.9902 C.2     1  UNL1        0.3043
      4 O           0.0080    0.9620   24.4046 O.2     1  UNL1       -0.2526
      5 N           1.5353    1.3470   26.4707 N.am    1  UNL1       -0.2641
      6 C           0.3319    1.3178   27.3657 C.3     1  UNL1        0.0966
      7 C           0.4938    1.4958   28.8463 C.3     1  UNL1        0.0415
      8 C           1.8592    1.7028   29.4319 C.3     1  UNL1        0.0806
      9 C           3.0626    1.7319   28.5369 C.3     1  UNL1        0.0415
     10 C           2.9007    1.5540   27.0564 C.3     1  UNL1        0.0966
     11 H           3.4729    1.3340   24.4796 H       1  UNL1        0.1514
     12 N           2.0211    1.8808   30.9124 N.am    1  UNL1       -0.2613
     13 C           1.5790    3.1557   31.5674 C.3     1  UNL1        0.1228
     14 C           1.7409    3.3336   33.0481 C.ar    1  UNL1        0.0112
     15 C           1.2989    4.6086   33.7030 C.ar    1  UNL1       -0.0014
     16 C           1.4608    4.7866   35.1836 C.ar    1  UNL1       -0.0002
     17 C           2.0648    3.6895   36.0092 C.ar    1  UNL1        0.0013
     18 C           2.5069    2.4145   35.3543 C.ar    1  UNL1        0.0144
     19 C           2.3449    2.2366   33.8736 C.ar    1  UNL1        0.0492
     20 N           2.7870    0.9616   33.2187 N.am    1  UNL1       -0.2684
     21 C           2.6251    0.7837   31.7381 C.2     1  UNL1        0.3079
     22 O           3.0671   -0.4913   31.0831 O.2     1  UNL1       -0.2522
     23 H           3.1834    0.2416   33.7605 H       1  UNL1        0.1564
     24 C           2.5957    2.1908   21.6943 C.2     1  UNL1        0.2439
     25 O           3.9370    2.8521   21.5767 O.2     1  UNL1       -0.2731
     26 N           1.4354    2.7002   20.8918 N.am    1  UNL1       -0.2781
     27 C           1.6163    3.8708   19.9714 C.3     1  UNL1        0.0948
     28 C           0.4560    4.3801   19.1688 C.3     1  UNL1        0.0375
     29 C          -0.8853    3.7189   19.2865 C.3     1  UNL1        0.0609
     30 C          -1.0662    2.5483   20.2068 C.3     1  UNL1        0.0375
     31 C           0.0942    2.0389   21.0095 C.3     1  UNL1        0.0948
     32 N          -2.0456    4.2282   18.4839 N.3     1  UNL1       -0.2738
     33 C          -1.8026    5.0065   17.2249 C.3     1  UNL1        0.0720
     34 C          -2.9629    5.5158   16.4223 C.3     1  UNL1        0.0174
     35 C          -4.3663    5.2469   16.8787 C.3     1  UNL1        0.0029
     36 C          -4.6093    4.4686   18.1378 C.3     1  UNL1        0.0174
     37 C          -3.4489    3.9593   18.9404 C.3     1  UNL1        0.0720
     38 C           2.0720   -0.3284   22.0544 C.3     1  UNL1        0.0553
     39 C           4.9193   -2.9766   18.6076 C.3     1  UNL1        0.0287
     40 C           4.5851   -2.6388   20.0303 C.2     1  UNL1       -0.0163
     41 C           3.4956   -1.6524   20.3310 C.2     1  UNL1       -0.0105
     42 C           3.1614   -1.3146   21.7537 C.2     1  UNL1       -0.0208
     43 C           3.9167   -1.9631   22.8758 C.2     1  UNL1       -0.0046
     44 C           5.0062   -2.9494   22.5752 C.2     1  UNL1        0.0261
     45 C           5.9158   -3.7426   23.4659 C.2     1  UNL1        0.1197
     46 N           6.8122   -4.5707   22.5936 N.2     1  UNL1       -0.1508
     47 N           6.4565   -4.2892   21.1639 N.2     1  UNL1       -0.1677
     48 C           5.3403   -3.2872   21.1524 C.3     1  UNL1        0.1672
@<TRIPOS>BOND
     1    39    40    1
     2    40    41    2
     3    41    42    1
     4    42    38    1
     5     1    38    1
     6     1     2    1
     7     2     3   am
     8     3     4    2
     9     3     5   am
    10     5     6    1
    11     6     7    1
    12     7     8    1
    13     8    12    1
    14    12    13    1
    15    13    14    1
    16    14    15   ar
    17    15    16   ar
    18    16    17   ar
    19    17    18   ar
    20    18    19   ar
    21    19    20    1
    22    20    21   am
    23    21    22    2
    24     8     9    1
    25     9    10    1
    26     1    24    1
    27    24    25    2
    28    24    26   am
    29    26    27    1
    30    27    28    1
    31    28    29    1
    32    29    32    1
    33    32    33    1
    34    33    34    1
    35    34    35    1
    36    35    36    1
    37    36    37    1
    38    29    30    1
    39    30    31    1
    40    42    43    2
    41    43    44    1
    42    44    45    2
    43    45    46    1
    44    46    47    2
    45    47    48    1
    46    48    40    1
    47    10     5    1
    48    31    26    1
    49    48    44    1
    50    21    12   am
    51    37    32    1
    52    19    14   ar
    53     2    11    1
    54    20    23    1
