@<TRIPOS>MOLECULE
*****
 25 28 0 0 0
SMALL
GASTEIGER

@<TRIPOS>ATOM
      1 N          -8.4469  -16.8371   24.1761 N.ar    1  UNL1       -0.3256
      2 C          -7.3024  -17.3326   23.3427 C.ar    1  UNL1        0.0367
      3 C          -7.7329  -18.6040   22.6732 C.ar    1  UNL1        0.0108
      4 C          -9.1435  -18.8942   23.0929 C.ar    1  UNL1        0.0145
      5 C         -10.0831  -20.0118   22.7492 C.ar    1  UNL1        0.0012
      6 C         -11.4640  -20.0374   23.3344 C.ar    1  UNL1        0.0001
      7 C         -11.9052  -18.9453   24.2633 C.ar    1  UNL1        0.0015
      8 C         -10.9656  -17.8278   24.6069 C.ar    1  UNL1        0.0172
      9 C          -9.5848  -17.8022   24.0217 C.ar    1  UNL1        0.0597
     10 C          -6.7849  -19.3331   21.7680 C.3     1  UNL1        0.1216
     11 N          -5.4063  -18.7909   21.5322 N.am    1  UNL1       -0.2715
     12 C          -4.4583  -19.5201   20.6269 C.2     1  UNL1        0.2493
     13 O          -4.8888  -20.7915   19.9574 O.2     1  UNL1       -0.2699
     14 C          -4.9758  -17.5195   22.2016 C.3     1  UNL1        0.1003
     15 C          -5.9239  -16.7903   23.1069 C.3     1  UNL1        0.0650
     16 C          -3.0797  -18.9778   20.3911 C.ar    1  UNL1        0.0536
     17 C          -2.0389  -19.0816   21.4662 C.ar    1  UNL1        0.0045
     18 C          -0.6603  -18.5393   21.2304 C.ar    1  UNL1        0.0001
     19 C          -0.3227  -17.8931   19.9195 C.ar    1  UNL1        0.0000
     20 C          -1.3636  -17.7893   18.8443 C.ar    1  UNL1        0.0001
     21 C          -2.7421  -18.3317   19.0801 C.ar    1  UNL1        0.0045
     22 C          -8.4526  -15.5945   25.0164 C.3     1  UNL1        0.1474
     23 O          -8.4638  -15.7933   27.6068 O.co2   1  UNL1       -0.5472
     24 C          -7.7186  -15.5702   26.3242 C.2     1  UNL1        0.0732
     25 O          -6.2394  -15.3227   26.3497 O.co2   1  UNL1       -0.5472
@<TRIPOS>UNITY_ATOM_ATTR
23 1
charge -1
@<TRIPOS>BOND
     1    23    24   ar
     2    24    25   ar
     3    24    22    1
     4    22     1    1
     5     1     2   ar
     6     2     3   ar
     7     3     4   ar
     8     4     5   ar
     9     5     6   ar
    10     6     7   ar
    11     7     8   ar
    12     8     9   ar
    13     3    10    1
    14    10    11    1
    15    11    12   am
    16    12    13    2
    17    12    16    1
    18    16    17   ar
    19    17    18   ar
    20    18    19   ar
    21    19    20   ar
    22    20    21   ar
    23    11    14    1
    24    14    15    1
    25     9     1   ar
    26    21    16   ar
    27    15     2    1
    28     9     4   ar
@<TRIPOS>MOLECULE
*****
 25 28 0 0 0
SMALL
GASTEIGER

@<TRIPOS>ATOM
      1 N         -12.1815   -5.6305   18.8733 N.ar    1  UNL1       -0.3256
      2 C         -13.6533   -5.9168   18.9168 C.ar    1  UNL1        0.0367
      3 C         -14.3820   -4.6069   18.8636 C.ar    1  UNL1        0.0108
      4 C         -13.3607   -3.5110   18.7873 C.ar    1  UNL1        0.0145
      5 C         -13.4933   -2.0187   18.7130 C.ar    1  UNL1        0.0012
      6 C         -12.2660   -1.1592   18.6448 C.ar    1  UNL1        0.0001
      7 C         -10.9059   -1.7918   18.6508 C.ar    1  UNL1        0.0015
      8 C         -10.7733   -3.2841   18.7250 C.ar    1  UNL1        0.0172
      9 C         -12.0006   -4.1436   18.7932 C.ar    1  UNL1        0.0597
     10 C         -15.8815   -4.5812   18.8916 C.3     1  UNL1        0.1216
     11 N         -16.6523   -5.8654   18.9728 N.am    1  UNL1       -0.2715
     12 C         -18.1519   -5.8397   19.0008 C.2     1  UNL1        0.2493
     13 O         -18.8806   -4.5297   18.9476 O.2     1  UNL1       -0.2699
     14 C         -15.9235   -7.1754   19.0260 C.3     1  UNL1        0.1003
     15 C         -14.4240   -7.2011   18.9980 C.3     1  UNL1        0.0650
     16 C         -18.9225   -7.1240   19.0820 C.ar    1  UNL1        0.0536
     17 C         -19.3853   -7.6383   20.4129 C.ar    1  UNL1        0.0045
     18 C         -20.1559   -8.9226   20.4940 C.ar    1  UNL1        0.0001
     19 C         -20.4638   -9.6927   19.2442 C.ar    1  UNL1        0.0000
     20 C         -20.0011   -9.1785   17.9132 C.ar    1  UNL1        0.0001
     21 C         -19.2304   -7.8941   17.8321 C.ar    1  UNL1        0.0045
     22 C         -11.0833   -6.6519   18.9044 C.3     1  UNL1        0.1474
     23 O          -9.7291   -8.5359   17.7355 O.co2   1  UNL1       -0.5472
     24 C         -10.8176   -7.5045   17.6993 C.2     1  UNL1        0.0732
     25 O         -11.6404   -7.3257   16.4579 O.co2   1  UNL1       -0.5472
@<TRIPOS>UNITY_ATOM_ATTR
23 1
charge -1
@<TRIPOS>BOND
     1    23    24   ar
     2    24    25   ar
     3    24    22    1
     4    22     1    1
     5     1     2   ar
     6     2     3   ar
     7     3     4   ar
     8     4     5   ar
     9     5     6   ar
    10     6     7   ar
    11     7     8   ar
    12     8     9   ar
    13     3    10    1
    14    10    11    1
    15    11    12   am
    16    12    13    2
    17    12    16    1
    18    16    17   ar
    19    17    18   ar
    20    18    19   ar
    21    19    20   ar
    22    20    21   ar
    23    11    14    1
    24    14    15    1
    25     9     1   ar
    26    21    16   ar
    27    15     2    1
    28     9     4   ar
@<TRIPOS>MOLECULE
*****
 25 28 0 0 0
SMALL
GASTEIGER

@<TRIPOS>ATOM
      1 N         -13.9895   -5.7450   19.1729 N.ar    1  UNL1       -0.3256
      2 C         -14.4286   -4.3110   19.1436 C.ar    1  UNL1        0.0367
      3 C         -13.2070   -3.4554   18.9838 C.ar    1  UNL1        0.0108
      4 C         -12.0129   -4.3606   18.9143 C.ar    1  UNL1        0.0145
      5 C         -10.5477   -4.0791   18.7597 C.ar    1  UNL1        0.0012
      6 C          -9.5662   -5.2127   18.7220 C.ar    1  UNL1        0.0001
      7 C         -10.0498   -6.6278   18.8389 C.ar    1  UNL1        0.0015
      8 C         -11.5150   -6.9093   18.9935 C.ar    1  UNL1        0.0172
      9 C         -12.4965   -5.7757   19.0312 C.ar    1  UNL1        0.0597
     10 C         -13.3398   -1.9626   18.9222 C.3     1  UNL1        0.1216
     11 N         -14.6941   -1.3254   19.0205 N.am    1  UNL1       -0.2715
     12 C         -14.8269    0.1675   18.9589 C.2     1  UNL1        0.2493
     13 O         -13.6052    1.0231   18.7990 O.2     1  UNL1       -0.2699
     14 C         -15.9158   -2.1810   19.1803 C.3     1  UNL1        0.1003
     15 C         -15.7830   -3.6738   19.2419 C.3     1  UNL1        0.0650
     16 C         -16.1813    0.8046   19.0571 C.ar    1  UNL1        0.0536
     17 C         -16.9569    1.1140   17.8110 C.ar    1  UNL1        0.0045
     18 C         -18.3113    1.7512   17.9093 C.ar    1  UNL1        0.0001
     19 C         -18.8901    2.0789   19.2537 C.ar    1  UNL1        0.0000
     20 C         -18.1146    1.7695   20.4999 C.ar    1  UNL1        0.0001
     21 C         -16.7601    1.1324   20.4016 C.ar    1  UNL1        0.0045
     22 C         -14.8860   -6.9388   19.3184 C.3     1  UNL1        0.1474
     23 O         -14.9362   -7.7195   16.8409 O.co2   1  UNL1       -0.5472
     24 C         -14.8375   -8.0415   18.3027 C.2     1  UNL1        0.0732
     25 O         -14.6902   -9.4661   18.7485 O.co2   1  UNL1       -0.5472
@<TRIPOS>UNITY_ATOM_ATTR
23 1
charge -1
@<TRIPOS>BOND
     1    23    24   ar
     2    24    25   ar
     3    24    22    1
     4    22     1    1
     5     1     2   ar
     6     2     3   ar
     7     3     4   ar
     8     4     5   ar
     9     5     6   ar
    10     6     7   ar
    11     7     8   ar
    12     8     9   ar
    13     3    10    1
    14    10    11    1
    15    11    12   am
    16    12    13    2
    17    12    16    1
    18    16    17   ar
    19    17    18   ar
    20    18    19   ar
    21    19    20   ar
    22    20    21   ar
    23    11    14    1
    24    14    15    1
    25     9     1   ar
    26    21    16   ar
    27    15     2    1
    28     9     4   ar
@<TRIPOS>MOLECULE
*****
 25 28 0 0 0
SMALL
GASTEIGER

@<TRIPOS>ATOM
      1 N           6.8488   -3.7375   25.7561 N.ar    1  UNL1       -0.3256
      2 C           6.6870   -3.5765   27.2387 C.ar    1  UNL1        0.0367
      3 C           7.0685   -4.8728   27.8899 C.ar    1  UNL1        0.0108
      4 C           7.4660   -5.8349   26.8099 C.ar    1  UNL1        0.0145
      5 C           7.9341   -7.2592   26.8570 C.ar    1  UNL1        0.0012
      6 C           8.2664   -7.9818   25.5852 C.ar    1  UNL1        0.0001
      7 C           8.1305   -7.2801   24.2665 C.ar    1  UNL1        0.0015
      8 C           7.6625   -5.8558   24.2194 C.ar    1  UNL1        0.0172
      9 C           7.3302   -5.1332   25.4911 C.ar    1  UNL1        0.0597
     10 C           7.0047   -5.0096   29.3823 C.3     1  UNL1        0.1216
     11 N           6.5593   -3.8502   30.2234 N.am    1  UNL1       -0.2715
     12 C           6.4955   -3.9870   31.7158 C.2     1  UNL1        0.2493
     13 O           6.8770   -5.2833   32.3671 O.2     1  UNL1       -0.2699
     14 C           6.1778   -2.5539   29.5721 C.3     1  UNL1        0.1003
     15 C           6.2417   -2.4171   28.0798 C.3     1  UNL1        0.0650
     16 C           6.0501   -2.8276   32.5568 C.ar    1  UNL1        0.0536
     17 C           7.0082   -1.7169   32.8709 C.ar    1  UNL1        0.0045
     18 C           6.5627   -0.5575   33.7119 C.ar    1  UNL1        0.0001
     19 C           5.1592   -0.5087   34.2389 C.ar    1  UNL1        0.0000
     20 C           4.2011   -1.6193   33.9249 C.ar    1  UNL1        0.0001
     21 C           4.6465   -2.7788   33.0839 C.ar    1  UNL1        0.0045
     22 C           6.5768   -2.6871   24.7204 C.3     1  UNL1        0.1474
     23 O           4.9139   -3.5908   22.9405 O.co2   1  UNL1       -0.5472
     24 C           5.2390   -2.6288   24.0446 C.2     1  UNL1        0.0732
     25 O           4.2262   -1.6086   24.4727 O.co2   1  UNL1       -0.5472
@<TRIPOS>UNITY_ATOM_ATTR
23 1
charge -1
@<TRIPOS>BOND
     1    23    24   ar
     2    24    25   ar
     3    24    22    1
     4    22     1    1
     5     1     2   ar
     6     2     3   ar
     7     3     4   ar
     8     4     5   ar
     9     5     6   ar
    10     6     7   ar
    11     7     8   ar
    12     8     9   ar
    13     3    10    1
    14    10    11    1
    15    11    12   am
    16    12    13    2
    17    12    16    1
    18    16    17   ar
    19    17    18   ar
    20    18    19   ar
    21    19    20   ar
    22    20    21   ar
    23    11    14    1
    24    14    15    1
    25     9     1   ar
    26    21    16   ar
    27    15     2    1
    28     9     4   ar
@<TRIPOS>MOLECULE
*****
 25 28 0 0 0
SMALL
GASTEIGER

@<TRIPOS>ATOM
      1 N           2.0938    0.9584   25.9464 N.ar    1  UNL1       -0.3256
      2 C           2.3084    0.4805   24.5409 C.ar    1  UNL1        0.0367
      3 C           1.1862    1.0068   23.6960 C.ar    1  UNL1        0.0108
      4 C           0.2781    1.8099   24.5794 C.ar    1  UNL1        0.0145
      5 C          -0.9871    2.5645   24.2970 C.ar    1  UNL1        0.0012
      6 C          -1.6914    3.2893   25.4054 C.ar    1  UNL1        0.0001
      7 C          -1.1304    3.2594   26.7963 C.ar    1  UNL1        0.0015
      8 C           0.1347    2.5048   27.0787 C.ar    1  UNL1        0.0172
      9 C           0.8390    1.7800   25.9702 C.ar    1  UNL1        0.0597
     10 C           1.1363    0.6867   22.2314 C.3     1  UNL1        0.1216
     11 N           2.2085   -0.1596   21.6117 N.am    1  UNL1       -0.2715
     12 C           2.1585   -0.4797   20.1470 C.2     1  UNL1        0.2493
     13 O           1.0364    0.0465   19.3022 O.2     1  UNL1       -0.2699
     14 C           3.3307   -0.6859   22.4566 C.3     1  UNL1        0.1003
     15 C           3.3806   -0.3658   23.9211 C.3     1  UNL1        0.0650
     16 C           3.2308   -1.3261   19.5274 C.ar    1  UNL1        0.0536
     17 C           4.3851   -0.6772   18.8228 C.ar    1  UNL1        0.0045
     18 C           5.4574   -1.5237   18.2032 C.ar    1  UNL1        0.0001
     19 C           5.3753   -3.0190   18.2882 C.ar    1  UNL1        0.0000
     20 C           4.2209   -3.6679   18.9929 C.ar    1  UNL1        0.0001
     21 C           3.1487   -2.8215   19.6125 C.ar    1  UNL1        0.0045
     22 C           2.9786    0.6661   27.1218 C.3     1  UNL1        0.1474
     23 O           1.8999   -0.5965   29.1199 O.co2   1  UNL1       -0.5472
     24 C           2.7864   -0.5956   27.9098 C.2     1  UNL1        0.0732
     25 O           3.4807   -1.8566   27.4879 O.co2   1  UNL1       -0.5472
@<TRIPOS>UNITY_ATOM_ATTR
23 1
charge -1
@<TRIPOS>BOND
     1    23    24   ar
     2    24    25   ar
     3    24    22    1
     4    22     1    1
     5     1     2   ar
     6     2     3   ar
     7     3     4   ar
     8     4     5   ar
     9     5     6   ar
    10     6     7   ar
    11     7     8   ar
    12     8     9   ar
    13     3    10    1
    14    10    11    1
    15    11    12   am
    16    12    13    2
    17    12    16    1
    18    16    17   ar
    19    17    18   ar
    20    18    19   ar
    21    19    20   ar
    22    20    21   ar
    23    11    14    1
    24    14    15    1
    25     9     1   ar
    26    21    16   ar
    27    15     2    1
    28     9     4   ar
@<TRIPOS>MOLECULE
*****
 25 28 0 0 0
SMALL
GASTEIGER

@<TRIPOS>ATOM
      1 N           3.3591   -1.9340   20.0609 N.ar    1  UNL1       -0.3256
      2 C           2.3730   -0.8070   20.1481 C.ar    1  UNL1        0.0367
      3 C           2.3223   -0.3449   21.5742 C.ar    1  UNL1        0.0108
      4 C           3.2769   -1.1863   22.3684 C.ar    1  UNL1        0.0145
      5 C           3.6455   -1.1851   23.8224 C.ar    1  UNL1        0.0012
      6 C           4.6548   -2.1660   24.3410 C.ar    1  UNL1        0.0001
      7 C           5.2956   -3.1481   23.4057 C.ar    1  UNL1        0.0015
      8 C           4.9270   -3.1493   21.9517 C.ar    1  UNL1        0.0172
      9 C           3.9177   -2.1685   21.4331 C.ar    1  UNL1        0.0597
     10 C           1.4133    0.7823   21.9655 C.3     1  UNL1        0.1216
     11 N           0.5551    1.4475   20.9305 N.am    1  UNL1       -0.2715
     12 C          -0.3538    2.5749   21.3218 C.2     1  UNL1        0.2493
     13 O          -0.4046    3.0369   22.7480 O.2     1  UNL1       -0.2699
     14 C           0.6059    0.9855   19.5044 C.3     1  UNL1        0.1003
     15 C           1.5148   -0.1418   19.1132 C.3     1  UNL1        0.0650
     16 C          -1.2120    3.2400   20.2868 C.ar    1  UNL1        0.0536
     17 C          -2.7065    3.1642   20.3901 C.ar    1  UNL1        0.0045
     18 C          -3.5646    3.8293   19.3551 C.ar    1  UNL1        0.0001
     19 C          -2.9281    4.5703   18.2168 C.ar    1  UNL1        0.0000
     20 C          -1.4336    4.6462   18.1134 C.ar    1  UNL1        0.0001
     21 C          -0.5755    3.9810   19.1485 C.ar    1  UNL1        0.0045
     22 C           3.7226   -2.6933   18.8194 C.3     1  UNL1        0.1474
     23 O           4.0465   -1.0880   16.8024 O.co2   1  UNL1       -0.5472
     24 C           4.6138   -2.0646   17.7896 C.2     1  UNL1        0.0732
     25 O           6.0723   -2.4123   17.7470 O.co2   1  UNL1       -0.5472
@<TRIPOS>UNITY_ATOM_ATTR
23 1
charge -1
@<TRIPOS>BOND
     1    23    24   ar
     2    24    25   ar
     3    24    22    1
     4    22     1    1
     5     1     2   ar
     6     2     3   ar
     7     3     4   ar
     8     4     5   ar
     9     5     6   ar
    10     6     7   ar
    11     7     8   ar
    12     8     9   ar
    13     3    10    1
    14    10    11    1
    15    11    12   am
    16    12    13    2
    17    12    16    1
    18    16    17   ar
    19    17    18   ar
    20    18    19   ar
    21    19    20   ar
    22    20    21   ar
    23    11    14    1
    24    14    15    1
    25     9     1   ar
    26    21    16   ar
    27    15     2    1
    28     9     4   ar
@<TRIPOS>MOLECULE
*****
 25 28 0 0 0
SMALL
GASTEIGER

@<TRIPOS>ATOM
      1 N         -13.6621   -7.1335   17.8278 N.ar    1  UNL1       -0.3256
      2 C         -14.4710   -5.9044   18.1196 C.ar    1  UNL1        0.0367
      3 C         -13.5388   -4.8472   18.6330 C.ar    1  UNL1        0.0108
      4 C         -12.1539   -5.4229   18.6584 C.ar    1  UNL1        0.0145
      5 C         -10.8334   -4.8430   19.0704 C.ar    1  UNL1        0.0012
      6 C          -9.5890   -5.6761   18.9848 C.ar    1  UNL1        0.0001
      7 C          -9.6652   -7.0891   18.4872 C.ar    1  UNL1        0.0015
      8 C         -10.9857   -7.6690   18.0752 C.ar    1  UNL1        0.0172
      9 C         -12.2301   -6.8359   18.1608 C.ar    1  UNL1        0.0597
     10 C         -14.0716   -3.4969   19.0109 C.3     1  UNL1        0.1216
     11 N         -15.5364   -3.2038   18.8755 N.am    1  UNL1       -0.2715
     12 C         -16.0692   -1.8534   19.2535 C.2     1  UNL1        0.2493
     13 O         -15.1371   -0.7962   19.7668 O.2     1  UNL1       -0.2699
     14 C         -16.4686   -4.2610   18.3622 C.3     1  UNL1        0.1003
     15 C         -15.9358   -5.6113   17.9843 C.3     1  UNL1        0.0650
     16 C         -17.5340   -1.5604   19.1181 C.ar    1  UNL1        0.0536
     17 C         -18.0574   -0.9136   17.8700 C.ar    1  UNL1        0.0045
     18 C         -19.5223   -0.6207   17.7346 C.ar    1  UNL1        0.0001
     19 C         -20.4638   -0.9744   18.8474 C.ar    1  UNL1        0.0000
     20 C         -19.9405   -1.6213   20.0956 C.ar    1  UNL1        0.0001
     21 C         -18.4756   -1.9142   20.2309 C.ar    1  UNL1        0.0045
     22 C         -14.1922   -8.4321   17.2964 C.3     1  UNL1        0.1474
     23 O         -15.5865   -8.8946   19.4393 O.co2   1  UNL1       -0.5472
     24 C         -14.8731   -9.3984   18.2197 C.2     1  UNL1        0.0732
     25 O         -14.8407  -10.8685   17.9235 O.co2   1  UNL1       -0.5472
@<TRIPOS>UNITY_ATOM_ATTR
23 1
charge -1
@<TRIPOS>BOND
     1    23    24   ar
     2    24    25   ar
     3    24    22    1
     4    22     1    1
     5     1     2   ar
     6     2     3   ar
     7     3     4   ar
     8     4     5   ar
     9     5     6   ar
    10     6     7   ar
    11     7     8   ar
    12     8     9   ar
    13     3    10    1
    14    10    11    1
    15    11    12   am
    16    12    13    2
    17    12    16    1
    18    16    17   ar
    19    17    18   ar
    20    18    19   ar
    21    19    20   ar
    22    20    21   ar
    23    11    14    1
    24    14    15    1
    25     9     1   ar
    26    21    16   ar
    27    15     2    1
    28     9     4   ar
@<TRIPOS>MOLECULE
*****
 25 28 0 0 0
SMALL
GASTEIGER

@<TRIPOS>ATOM
      1 N         -13.0274   -5.1832   18.3839 N.ar    1  UNL1       -0.3256
      2 C         -13.8477   -3.9902   18.7759 C.ar    1  UNL1        0.0367
      3 C         -15.2074   -4.4760   19.1824 C.ar    1  UNL1        0.0108
      4 C         -15.2274   -5.9692   19.0415 C.ar    1  UNL1        0.0145
      5 C         -16.2984   -6.9874   19.2989 C.ar    1  UNL1        0.0012
      6 C         -16.0220   -8.4426   19.0628 C.ar    1  UNL1        0.0001
      7 C         -14.6746   -8.8797   18.5693 C.ar    1  UNL1        0.0015
      8 C         -13.6036   -7.8615   18.3119 C.ar    1  UNL1        0.0172
      9 C         -13.8800   -6.4063   18.5480 C.ar    1  UNL1        0.0597
     10 C         -16.2517   -3.4958   19.6282 C.3     1  UNL1        0.1216
     11 N         -15.9363   -2.0299   19.6676 N.am    1  UNL1       -0.2715
     12 C         -16.9806   -1.0497   20.1135 C.2     1  UNL1        0.2493
     13 O         -18.3403   -1.5355   20.5199 O.2     1  UNL1       -0.2699
     14 C         -14.5766   -1.5441   19.2612 C.3     1  UNL1        0.1003
     15 C         -13.5323   -2.5242   18.8153 C.3     1  UNL1        0.0650
     16 C         -16.6651    0.4162   20.1528 C.ar    1  UNL1        0.0536
     17 C         -17.1068    1.2474   21.3207 C.ar    1  UNL1        0.0045
     18 C         -16.7912    2.7134   21.3600 C.ar    1  UNL1        0.0001
     19 C         -16.0340    3.3480   20.2314 C.ar    1  UNL1        0.0000
     20 C         -15.5923    2.5168   19.0634 C.ar    1  UNL1        0.0001
     21 C         -15.9079    1.0509   19.0241 C.ar    1  UNL1        0.0045
     22 C         -11.6041   -5.1576   17.9108 C.3     1  UNL1        0.1474
     23 O         -10.3525   -7.1284   19.0505 O.co2   1  UNL1       -0.5472
     24 C         -10.5077   -5.6569   18.8041 C.2     1  UNL1        0.0732
     25 O          -9.5662   -4.6848   19.4513 O.co2   1  UNL1       -0.5472
@<TRIPOS>UNITY_ATOM_ATTR
23 1
charge -1
@<TRIPOS>BOND
     1    23    24   ar
     2    24    25   ar
     3    24    22    1
     4    22     1    1
     5     1     2   ar
     6     2     3   ar
     7     3     4   ar
     8     4     5   ar
     9     5     6   ar
    10     6     7   ar
    11     7     8   ar
    12     8     9   ar
    13     3    10    1
    14    10    11    1
    15    11    12   am
    16    12    13    2
    17    12    16    1
    18    16    17   ar
    19    17    18   ar
    20    18    19   ar
    21    19    20   ar
    22    20    21   ar
    23    11    14    1
    24    14    15    1
    25     9     1   ar
    26    21    16   ar
    27    15     2    1
    28     9     4   ar
@<TRIPOS>MOLECULE
*****
 25 28 0 0 0
SMALL
GASTEIGER

@<TRIPOS>ATOM
      1 N          -6.2020  -20.3474   20.1789 N.ar    1  UNL1       -0.3256
      2 C          -6.6149  -19.3739   21.2428 C.ar    1  UNL1        0.0367
      3 C          -8.0490  -19.0056   21.0025 C.ar    1  UNL1        0.0108
      4 C          -8.5224  -19.7513   19.7902 C.ar    1  UNL1        0.0145
      5 C          -9.8454  -19.7824   19.0840 C.ar    1  UNL1        0.0012
      6 C         -10.0268  -20.6427   17.8688 C.ar    1  UNL1        0.0001
      7 C          -8.8853  -21.4720   17.3597 C.ar    1  UNL1        0.0015
      8 C          -7.5623  -21.4410   18.0659 C.ar    1  UNL1        0.0172
      9 C          -7.3808  -20.5806   19.2811 C.ar    1  UNL1        0.0597
     10 C          -8.7386  -18.0386   21.9188 C.3     1  UNL1        0.1216
     11 N          -7.9940  -17.4401   23.0753 N.am    1  UNL1       -0.2715
     12 C          -8.6837  -16.4731   23.9916 C.2     1  UNL1        0.2493
     13 O         -10.1177  -16.1047   23.7513 O.2     1  UNL1       -0.2699
     14 C          -6.5600  -17.8085   23.3155 C.3     1  UNL1        0.1003
     15 C          -5.8704  -18.7754   22.3993 C.3     1  UNL1        0.0650
     16 C          -7.9391  -15.8746   25.1480 C.ar    1  UNL1        0.0536
     17 C          -8.6048  -15.7529   26.4866 C.ar    1  UNL1        0.0045
     18 C          -7.8601  -15.1543   27.6430 C.ar    1  UNL1        0.0001
     19 C          -6.4497  -14.6776   27.4608 C.ar    1  UNL1        0.0000
     20 C          -5.7838  -14.7993   26.1222 C.ar    1  UNL1        0.0001
     21 C          -6.5285  -15.3978   24.9658 C.ar    1  UNL1        0.0045
     22 C          -4.8479  -20.9771   20.0375 C.3     1  UNL1        0.1474
     23 O          -2.5730  -20.4167   21.1603 O.co2   1  UNL1       -0.5472
     24 C          -3.6139  -20.1284   20.1193 C.2     1  UNL1        0.0732
     25 O          -3.4205  -18.9914   19.1603 O.co2   1  UNL1       -0.5472
@<TRIPOS>UNITY_ATOM_ATTR
23 1
charge -1
@<TRIPOS>BOND
     1    23    24   ar
     2    24    25   ar
     3    24    22    1
     4    22     1    1
     5     1     2   ar
     6     2     3   ar
     7     3     4   ar
     8     4     5   ar
     9     5     6   ar
    10     6     7   ar
    11     7     8   ar
    12     8     9   ar
    13     3    10    1
    14    10    11    1
    15    11    12   am
    16    12    13    2
    17    12    16    1
    18    16    17   ar
    19    17    18   ar
    20    18    19   ar
    21    19    20   ar
    22    20    21   ar
    23    11    14    1
    24    14    15    1
    25     9     1   ar
    26    21    16   ar
    27    15     2    1
    28     9     4   ar
