@<TRIPOS>MOLECULE
*****
 19 21 0 0 0
SMALL
GASTEIGER

@<TRIPOS>ATOM
      1 C          -6.5924  -20.2521   20.7175 C.ar    1  UNL1        0.1392
      2 C          -7.4579  -19.9638   19.5268 C.ar    1  UNL1        0.0384
      3 C          -8.8102  -19.3427   19.7153 C.ar    1  UNL1        0.0207
      4 C          -9.2970  -19.0101   21.0947 C.ar    1  UNL1        0.0657
      5 C          -8.4315  -19.2984   22.2853 C.ar    1  UNL1        0.0207
      6 C          -7.0792  -19.9194   22.0967 C.ar    1  UNL1        0.0384
      7 N         -10.6493  -18.3890   21.2832 N.ar    1  UNL1       -0.2864
      8 C         -11.4639  -18.4155   22.5425 C.ar    1  UNL1        0.1022
      9 C         -12.7425  -17.6753   22.2832 C.ar    1  UNL1        0.1196
     10 N         -12.7182  -17.1914   20.8637 N.ar    1  UNL1       -0.2220
     11 C         -11.4246  -17.6324   20.2456 C.ar    1  UNL1        0.1828
     12 O          -5.2401  -20.8732   20.5289 O.3     1  UNL1       -0.4690
     13 C          -4.1297  -20.0783   19.9082 C.3     1  UNL1        0.2508
     14 C          -2.2359  -16.6945   22.1915 C.ar    1  UNL1        0.0207
     15 C          -2.9258  -17.8035   22.9291 C.ar    1  UNL1        0.0029
     16 C          -3.5571  -18.9315   22.1680 C.ar    1  UNL1        0.0185
     17 C          -3.4984  -18.9504   20.6693 C.ar    1  UNL1        0.1026
     18 N          -2.8085  -17.8414   19.9317 N.ar    1  UNL1       -0.2445
     19 C          -2.1773  -16.7135   20.6928 C.ar    1  UNL1        0.0986
@<TRIPOS>BOND
     1    14    15   ar
     2    15    16   ar
     3    16    17   ar
     4    17    13    1
     5    13    12    1
     6    12     1    1
     7     1     2   ar
     8     2     3   ar
     9     3     4   ar
    10     4     7    1
    11     7     8   ar
    12     8     9   ar
    13     9    10   ar
    14    10    11   ar
    15     4     5   ar
    16     5     6   ar
    17    17    18   ar
    18    18    19   ar
    19    19    14   ar
    20     6     1   ar
    21    11     7   ar
@<TRIPOS>MOLECULE
*****
 19 21 0 0 0
SMALL
GASTEIGER

@<TRIPOS>ATOM
      1 C          -7.0621  -19.5673   20.5502 C.ar    1  UNL1        0.1392
      2 C          -7.0876  -19.3768   22.0379 C.ar    1  UNL1        0.0384
      3 C          -8.3799  -19.0629   22.7317 C.ar    1  UNL1        0.0207
      4 C          -9.6467  -18.9395   21.9379 C.ar    1  UNL1        0.0657
      5 C          -9.6211  -19.1301   20.4503 C.ar    1  UNL1        0.0207
      6 C          -8.3288  -19.4440   19.7565 C.ar    1  UNL1        0.0384
      7 N         -10.9390  -18.6256   22.6317 N.ar    1  UNL1       -0.2864
      8 C         -12.1443  -17.9895   22.0052 C.ar    1  UNL1        0.1022
      9 C         -13.2031  -17.8634   23.0602 C.ar    1  UNL1        0.1196
     10 N         -12.6522  -18.4217   24.3388 N.ar    1  UNL1       -0.2220
     11 C         -11.2529  -18.8928   24.0741 C.ar    1  UNL1        0.1828
     12 O          -5.7698  -19.8812   19.8564 O.3     1  UNL1       -0.4690
     13 C          -4.5088  -20.0365   20.6537 C.3     1  UNL1        0.2508
     14 C          -1.5853  -16.6265   20.9273 C.ar    1  UNL1        0.0207
     15 C          -1.5880  -17.5171   19.7204 C.ar    1  UNL1        0.0029
     16 C          -2.5625  -18.6538   19.6292 C.ar    1  UNL1        0.0185
     17 C          -3.5343  -18.8998   20.7449 C.ar    1  UNL1        0.1026
     18 N          -3.5316  -18.0092   21.9519 N.ar    1  UNL1       -0.2445
     19 C          -2.5571  -16.8726   22.0431 C.ar    1  UNL1        0.0986
@<TRIPOS>BOND
     1    14    15   ar
     2    15    16   ar
     3    16    17   ar
     4    17    13    1
     5    13    12    1
     6    12     1    1
     7     1     2   ar
     8     2     3   ar
     9     3     4   ar
    10     4     7    1
    11     7     8   ar
    12     8     9   ar
    13     9    10   ar
    14    10    11   ar
    15     4     5   ar
    16     5     6   ar
    17    17    18   ar
    18    18    19   ar
    19    19    14   ar
    20     6     1   ar
    21    11     7   ar
@<TRIPOS>MOLECULE
*****
 19 21 0 0 0
SMALL
GASTEIGER

@<TRIPOS>ATOM
      1 C          -6.6482  -19.5913   21.8938 C.ar    1  UNL1        0.1392
      2 C          -5.8651  -18.6143   22.7197 C.ar    1  UNL1        0.0384
      3 C          -4.4828  -18.2135   22.2971 C.ar    1  UNL1        0.0207
      4 C          -3.8836  -18.7898   21.0485 C.ar    1  UNL1        0.0657
      5 C          -4.6667  -19.7668   20.2226 C.ar    1  UNL1        0.0207
      6 C          -6.0490  -20.1676   20.6453 C.ar    1  UNL1        0.0384
      7 N          -2.5013  -18.3891   20.6258 N.ar    1  UNL1       -0.2864
      8 C          -1.9123  -17.0133   20.7276 C.ar    1  UNL1        0.1022
      9 C          -0.5123  -17.0677   20.1918 C.ar    1  UNL1        0.1196
     10 N          -0.2360  -18.4770   19.7589 N.ar    1  UNL1       -0.2220
     11 C          -1.4653  -19.2938   20.0271 C.ar    1  UNL1        0.1828
     12 O          -8.0305  -19.9921   22.3165 O.3     1  UNL1       -0.4690
     13 C          -8.8715  -19.0477   23.1233 C.3     1  UNL1        0.2508
     14 C         -12.8064  -17.5897   21.4983 C.ar    1  UNL1        0.0207
     15 C         -12.6927  -17.9923   22.9387 C.ar    1  UNL1        0.0029
     16 C         -11.3811  -18.4783   23.4804 C.ar    1  UNL1        0.0185
     17 C         -10.1831  -18.5617   22.5816 C.ar    1  UNL1        0.1026
     18 N         -10.2968  -18.1591   21.1412 N.ar    1  UNL1       -0.2445
     19 C         -11.6084  -17.6731   20.5995 C.ar    1  UNL1        0.0986
@<TRIPOS>BOND
     1    14    15   ar
     2    15    16   ar
     3    16    17   ar
     4    17    13    1
     5    13    12    1
     6    12     1    1
     7     1     2   ar
     8     2     3   ar
     9     3     4   ar
    10     4     7    1
    11     7     8   ar
    12     8     9   ar
    13     9    10   ar
    14    10    11   ar
    15     4     5   ar
    16     5     6   ar
    17    17    18   ar
    18    18    19   ar
    19    19    14   ar
    20     6     1   ar
    21    11     7   ar
@<TRIPOS>MOLECULE
*****
 19 21 0 0 0
SMALL
GASTEIGER

@<TRIPOS>ATOM
      1 C          -6.7448  -19.3515   22.1024 C.ar    1  UNL1        0.1392
      2 C          -7.8128  -20.2648   22.6273 C.ar    1  UNL1        0.0384
      3 C          -9.2056  -19.7484   22.8352 C.ar    1  UNL1        0.0207
      4 C          -9.5305  -18.3186   22.5181 C.ar    1  UNL1        0.0657
      5 C          -8.4626  -17.4055   21.9932 C.ar    1  UNL1        0.0207
      6 C          -7.0697  -17.9219   21.7854 C.ar    1  UNL1        0.0384
      7 N         -10.9234  -17.8022   22.7260 N.ar    1  UNL1       -0.2864
      8 C         -12.0460  -18.5384   23.3951 C.ar    1  UNL1        0.1022
      9 C         -13.2547  -17.6501   23.3839 C.ar    1  UNL1        0.1196
     10 N         -12.8790  -16.3649   22.7077 N.ar    1  UNL1       -0.2220
     11 C         -11.4382  -16.4588   22.3011 C.ar    1  UNL1        0.1828
     12 O          -5.3519  -19.8680   21.8945 O.3     1  UNL1       -0.4690
     13 C          -4.2008  -19.2318   22.6157 C.3     1  UNL1        0.2508
     14 C          -1.0161  -17.0586   20.2952 C.ar    1  UNL1        0.0207
     15 C          -1.7136  -16.3743   21.4333 C.ar    1  UNL1        0.0029
     16 C          -2.7752  -17.0987   22.2067 C.ar    1  UNL1        0.0185
     17 C          -3.1392  -18.5074   21.8422 C.ar    1  UNL1        0.1026
     18 N          -2.4417  -19.1917   20.7042 N.ar    1  UNL1       -0.2445
     19 C          -1.3801  -18.4673   19.9307 C.ar    1  UNL1        0.0986
@<TRIPOS>BOND
     1    14    15   ar
     2    15    16   ar
     3    16    17   ar
     4    17    13    1
     5    13    12    1
     6    12     1    1
     7     1     2   ar
     8     2     3   ar
     9     3     4   ar
    10     4     7    1
    11     7     8   ar
    12     8     9   ar
    13     9    10   ar
    14    10    11   ar
    15     4     5   ar
    16     5     6   ar
    17    17    18   ar
    18    18    19   ar
    19    19    14   ar
    20     6     1   ar
    21    11     7   ar
@<TRIPOS>MOLECULE
*****
 19 21 0 0 0
SMALL
GASTEIGER

@<TRIPOS>ATOM
      1 C          -6.6752  -19.0154   21.7650 C.ar    1  UNL1        0.1392
      2 C          -5.7133  -18.4370   22.7602 C.ar    1  UNL1        0.0384
      3 C          -4.2844  -18.1988   22.3710 C.ar    1  UNL1        0.0207
      4 C          -3.8174  -18.5390   20.9866 C.ar    1  UNL1        0.0657
      5 C          -4.7793  -19.1173   19.9916 C.ar    1  UNL1        0.0207
      6 C          -6.2082  -19.3555   20.3808 C.ar    1  UNL1        0.0384
      7 N          -2.3885  -18.3007   20.5974 N.ar    1  UNL1       -0.2864
      8 C          -1.6587  -16.9928   20.6792 C.ar    1  UNL1        0.1022
      9 C          -0.2577  -17.2123   20.1904 C.ar    1  UNL1        0.1196
     10 N          -0.1215  -18.6560   19.8066 N.ar    1  UNL1       -0.2220
     11 C          -1.4384  -19.3287   20.0581 C.ar    1  UNL1        0.1828
     12 O          -8.1041  -19.2536   22.1542 O.3     1  UNL1       -0.4690
     13 C          -8.9957  -18.0928   22.4821 C.3     1  UNL1        0.2508
     14 C          -8.4620  -15.8704   26.3585 C.ar    1  UNL1        0.0207
     15 C          -9.0900  -17.2326   26.3552 C.ar    1  UNL1        0.0029
     16 C          -9.2679  -17.9734   25.0631 C.ar    1  UNL1        0.0185
     17 C          -8.8178  -17.3520   23.7742 C.ar    1  UNL1        0.1026
     18 N          -8.1898  -15.9898   23.7775 N.ar    1  UNL1       -0.2445
     19 C          -8.0119  -15.2491   25.0696 C.ar    1  UNL1        0.0986
@<TRIPOS>BOND
     1    14    15   ar
     2    15    16   ar
     3    16    17   ar
     4    17    13    1
     5    13    12    1
     6    12     1    1
     7     1     2   ar
     8     2     3   ar
     9     3     4   ar
    10     4     7    1
    11     7     8   ar
    12     8     9   ar
    13     9    10   ar
    14    10    11   ar
    15     4     5   ar
    16     5     6   ar
    17    17    18   ar
    18    18    19   ar
    19    19    14   ar
    20     6     1   ar
    21    11     7   ar
@<TRIPOS>MOLECULE
*****
 19 21 0 0 0
SMALL
GASTEIGER

@<TRIPOS>ATOM
      1 C         -13.6929   -3.2587   18.9256 C.ar    1  UNL1        0.1392
      2 C         -13.7682   -4.0288   20.2107 C.ar    1  UNL1        0.0384
      3 C         -14.2431   -5.4516   20.2056 C.ar    1  UNL1        0.0207
      4 C         -14.6428   -6.1044   18.9155 C.ar    1  UNL1        0.0657
      5 C         -14.5675   -5.3343   17.6305 C.ar    1  UNL1        0.0207
      6 C         -14.0926   -3.9114   17.6356 C.ar    1  UNL1        0.0384
      7 N         -15.1177   -7.5272   18.9105 N.ar    1  UNL1       -0.2864
      8 C         -16.3637   -8.0431   19.5673 C.ar    1  UNL1        0.1022
      9 C         -16.4461   -9.5187   19.3105 C.ar    1  UNL1        0.1196
     10 N         -15.2510   -9.9147   18.4950 N.ar    1  UNL1       -0.2220
     11 C         -14.4300   -8.6839   18.2478 C.ar    1  UNL1        0.1828
     12 O         -13.2180   -1.8359   18.9306 O.3     1  UNL1       -0.4690
     13 C         -11.7536   -1.5336   18.8120 C.3     1  UNL1        0.2508
     14 C          -9.0359   -4.3869   16.6388 C.ar    1  UNL1        0.0207
     15 C          -9.5200   -4.7168   18.0196 C.ar    1  UNL1        0.0029
     16 C         -10.4259   -3.7657   18.7440 C.ar    1  UNL1        0.0185
     17 C         -10.8477   -2.4847   18.0876 C.ar    1  UNL1        0.1026
     18 N         -10.3636   -2.1547   16.7068 N.ar    1  UNL1       -0.2445
     19 C          -9.4577   -3.1058   15.9824 C.ar    1  UNL1        0.0986
@<TRIPOS>BOND
     1    14    15   ar
     2    15    16   ar
     3    16    17   ar
     4    17    13    1
     5    13    12    1
     6    12     1    1
     7     1     2   ar
     8     2     3   ar
     9     3     4   ar
    10     4     7    1
    11     7     8   ar
    12     8     9   ar
    13     9    10   ar
    14    10    11   ar
    15     4     5   ar
    16     5     6   ar
    17    17    18   ar
    18    18    19   ar
    19    19    14   ar
    20     6     1   ar
    21    11     7   ar
@<TRIPOS>MOLECULE
*****
 19 21 0 0 0
SMALL
GASTEIGER

@<TRIPOS>ATOM
      1 C         -13.7842   -3.3247   18.9957 C.ar    1  UNL1        0.1392
      2 C         -14.4184   -3.8861   17.7577 C.ar    1  UNL1        0.0384
      3 C         -14.8743   -5.3149   17.7305 C.ar    1  UNL1        0.0207
      4 C         -14.6960   -6.1822   18.9414 C.ar    1  UNL1        0.0657
      5 C         -14.0619   -5.6207   20.1793 C.ar    1  UNL1        0.0207
      6 C         -13.6060   -4.1920   20.2065 C.ar    1  UNL1        0.0384
      7 N         -15.1519   -7.6110   18.9142 N.ar    1  UNL1       -0.2864
      8 C         -16.3955   -8.1520   19.5552 C.ar    1  UNL1        0.1022
      9 C         -16.4564   -9.6250   19.2784 C.ar    1  UNL1        0.1196
     10 N         -15.2506   -9.9944   18.4663 N.ar    1  UNL1       -0.2220
     11 C         -14.4443   -8.7496   18.2412 C.ar    1  UNL1        0.1828
     12 O         -13.3283   -1.8959   19.0229 O.3     1  UNL1       -0.4690
     13 C         -11.8645   -1.5744   18.9616 C.3     1  UNL1        0.2508
     14 C          -9.0802   -4.2050   16.5998 C.ar    1  UNL1        0.0207
     15 C          -9.6201   -2.9456   15.9896 C.ar    1  UNL1        0.0029
     16 C         -10.5481   -2.0687   16.7769 C.ar    1  UNL1        0.0185
     17 C         -10.9364   -2.4513   18.1743 C.ar    1  UNL1        0.1026
     18 N         -10.3965   -3.7107   18.7845 N.ar    1  UNL1       -0.2445
     19 C          -9.4684   -4.5875   17.9972 C.ar    1  UNL1        0.0986
@<TRIPOS>BOND
     1    14    15   ar
     2    15    16   ar
     3    16    17   ar
     4    17    13    1
     5    13    12    1
     6    12     1    1
     7     1     2   ar
     8     2     3   ar
     9     3     4   ar
    10     4     7    1
    11     7     8   ar
    12     8     9   ar
    13     9    10   ar
    14    10    11   ar
    15     4     5   ar
    16     5     6   ar
    17    17    18   ar
    18    18    19   ar
    19    19    14   ar
    20     6     1   ar
    21    11     7   ar
@<TRIPOS>MOLECULE
*****
 19 21 0 0 0
SMALL
GASTEIGER

@<TRIPOS>ATOM
      1 C         -13.0274   -5.7591   18.9023 C.ar    1  UNL1        0.1392
      2 C         -12.6784   -5.0361   17.6352 C.ar    1  UNL1        0.0384
      3 C         -12.8363   -3.5466   17.5538 C.ar    1  UNL1        0.0207
      4 C         -13.3431   -2.7802   18.7395 C.ar    1  UNL1        0.0657
      5 C         -13.6920   -3.5033   20.0065 C.ar    1  UNL1        0.0207
      6 C         -13.5341   -4.9927   20.0879 C.ar    1  UNL1        0.0384
      7 N         -13.5009   -1.2908   18.6581 N.ar    1  UNL1       -0.2864
      8 C         -14.7735   -0.5260   18.8719 C.ar    1  UNL1        0.1022
      9 C         -14.4730    0.9329   18.6945 C.ar    1  UNL1        0.1196
     10 N         -13.0147    1.0697   18.3711 N.ar    1  UNL1       -0.2220
     11 C         -12.4139   -0.3045   18.3486 C.ar    1  UNL1        0.1828
     12 O         -12.8695   -7.2486   18.9837 O.3     1  UNL1       -0.4690
     13 C         -13.6592   -8.1375   18.0694 C.3     1  UNL1        0.2508
     14 C         -17.5573   -9.9031   19.4615 C.ar    1  UNL1        0.0207
     15 C         -17.1648   -8.5202   19.8899 C.ar    1  UNL1        0.0029
     16 C         -15.8655   -7.9317   19.4258 C.ar    1  UNL1        0.0185
     17 C         -14.9586   -8.7260   18.5334 C.ar    1  UNL1        0.1026
     18 N         -15.3511  -10.1089   18.1050 N.ar    1  UNL1       -0.2445
     19 C         -16.6504  -10.6974   18.5690 C.ar    1  UNL1        0.0986
@<TRIPOS>BOND
     1    14    15   ar
     2    15    16   ar
     3    16    17   ar
     4    17    13    1
     5    13    12    1
     6    12     1    1
     7     1     2   ar
     8     2     3   ar
     9     3     4   ar
    10     4     7    1
    11     7     8   ar
    12     8     9   ar
    13     9    10   ar
    14    10    11   ar
    15     4     5   ar
    16     5     6   ar
    17    17    18   ar
    18    18    19   ar
    19    19    14   ar
    20     6     1   ar
    21    11     7   ar
@<TRIPOS>MOLECULE
*****
 19 21 0 0 0
SMALL
GASTEIGER

@<TRIPOS>ATOM
      1 C         -12.0676   -5.9056   19.1131 C.ar    1  UNL1        0.1392
      2 C         -12.1134   -7.1730   18.3120 C.ar    1  UNL1        0.0384
      3 C         -13.4022   -7.9285   18.1765 C.ar    1  UNL1        0.0207
      4 C         -14.6452   -7.4165   18.8421 C.ar    1  UNL1        0.0657
      5 C         -14.5993   -6.1491   19.6431 C.ar    1  UNL1        0.0207
      6 C         -13.3105   -5.3937   19.7786 C.ar    1  UNL1        0.0384
      7 N         -15.9339   -8.1719   18.7066 N.ar    1  UNL1       -0.2864
      8 C         -16.7757   -8.2645   17.4685 C.ar    1  UNL1        0.1022
      9 C         -17.9693   -9.1172   17.7821 C.ar    1  UNL1        0.1196
     10 N         -17.8652   -9.5516   19.2140 N.ar    1  UNL1       -0.2220
     11 C         -16.6073   -8.9674   19.7855 C.ar    1  UNL1        0.1828
     12 O         -10.7788   -5.1502   19.2486 O.3     1  UNL1       -0.4690
     13 C         -10.2178   -4.4071   18.0726 C.3     1  UNL1        0.2508
     14 C         -11.4932   -0.1661   17.2743 C.ar    1  UNL1        0.0207
     15 C         -11.9776   -0.8761   18.5035 C.ar    1  UNL1        0.0029
     16 C         -11.5524   -2.2898   18.7696 C.ar    1  UNL1        0.0185
     17 C         -10.6429   -2.9934   17.8065 C.ar    1  UNL1        0.1026
     18 N         -10.1585   -2.2833   16.5772 N.ar    1  UNL1       -0.2445
     19 C         -10.5836   -0.8696   16.3111 C.ar    1  UNL1        0.0986
@<TRIPOS>BOND
     1    14    15   ar
     2    15    16   ar
     3    16    17   ar
     4    17    13    1
     5    13    12    1
     6    12     1    1
     7     1     2   ar
     8     2     3   ar
     9     3     4   ar
    10     4     7    1
    11     7     8   ar
    12     8     9   ar
    13     9    10   ar
    14    10    11   ar
    15     4     5   ar
    16     5     6   ar
    17    17    18   ar
    18    18    19   ar
    19    19    14   ar
    20     6     1   ar
    21    11     7   ar
