@<TRIPOS>MOLECULE
*****
 29 32 0 0 0
SMALL
GASTEIGER

@<TRIPOS>ATOM
      1 O         -13.6732    1.6111   18.7526 O.2     1  UNL1       -0.1683
      2 S         -14.9324    0.8111   18.5967 S.O2    1  UNL1        0.0143
      3 O         -16.1917    0.0111   18.4409 O.2     1  UNL1       -0.1683
      4 C         -14.1320   -0.4568   18.6379 C.ar    1  UNL1        0.1251
      5 C         -12.6353   -0.4019   18.5549 C.ar    1  UNL1        0.0215
      6 C         -11.8349   -1.6699   18.5960 C.ar    1  UNL1        0.0205
      7 C         -12.5311   -2.9927   18.7201 C.ar    1  UNL1        0.0814
      8 N         -14.0278   -3.0476   18.8031 N.ar    1  UNL1       -0.2425
      9 C         -14.8283   -1.7797   18.7620 C.ar    1  UNL1        0.1171
     10 C         -11.7308   -4.2606   18.7613 C.ar    1  UNL1        0.0177
     11 C         -12.4285   -5.5885   18.7519 C.ar    1  UNL1        0.0024
     12 C         -11.6282   -6.8565   18.7931 C.ar    1  UNL1        0.0114
     13 C         -10.1302   -6.7967   18.8435 C.ar    1  UNL1        0.0577
     14 CL         -9.3299   -8.0647   18.8847 Cl      1  UNL1       -0.0822
     15 C          -9.4326   -5.4688   18.8529 C.ar    1  UNL1        0.0114
     16 C         -10.2328   -4.2009   18.8117 C.ar    1  UNL1        0.0024
     17 C         -15.7329    2.0790   18.5556 C.3     1  UNL1        0.1823
     18 C         -16.0916    2.7812   19.8316 C.ar    1  UNL1        0.0014
     19 C         -15.4246    4.0766   20.1879 C.ar    1  UNL1       -0.0029
     20 C         -15.7833    4.7788   21.4640 C.ar    1  UNL1       -0.0048
     21 C         -16.8091    4.1855   22.3837 C.ar    1  UNL1       -0.0247
     22 C         -17.4760    2.8901   22.0274 C.ar    1  UNL1       -0.0250
     23 C         -17.1174    2.1879   20.7514 C.ar    1  UNL1       -0.0071
     24 C         -18.5169    2.1316   22.7964 C.3     1  UNL1        0.0431
     25 C         -19.1477    2.4812   24.1117 C.3     1  UNL1        0.0733
     26 N         -18.8935    3.6755   24.9827 N.3     1  UNL1       -0.2969
     27 C         -17.9458    4.8154   24.7537 C.3     1  UNL1        0.0733
     28 C         -17.0181    5.0424   23.5970 C.3     1  UNL1        0.0431
     29 H         -18.6078    3.2818   25.8792 H       1  UNL1        0.1233
@<TRIPOS>BOND
     1     1     2    2
     2     2     3    2
     3     2    17    1
     4    17    18    1
     5    18    19   ar
     6    19    20   ar
     7    20    21   ar
     8    21    22   ar
     9    22    23   ar
    10    22    24    1
    11    24    25    1
    12    25    26    1
    13    26    27    1
    14    27    28    1
    15     2     4    1
    16     4     5   ar
    17     5     6   ar
    18     6     7   ar
    19     7    10    1
    20    10    11   ar
    21    11    12   ar
    22    12    13   ar
    23    13    14    1
    24    13    15   ar
    25    15    16   ar
    26     7     8   ar
    27     8     9   ar
    28    23    18   ar
    29     9     4   ar
    30    28    21    1
    31    16    10   ar
    32    26    29    1
@<TRIPOS>MOLECULE
*****
 29 32 0 0 0
SMALL
GASTEIGER

@<TRIPOS>ATOM
      1 O           8.1756   -2.5497   21.4024 O.2     1  UNL1       -0.1683
      2 S           7.3346   -3.6896   20.9092 S.O2    1  UNL1        0.0143
      3 O           6.4936   -4.8295   20.4159 O.2     1  UNL1       -0.1683
      4 C           6.2135   -2.7365   20.6181 C.ar    1  UNL1        0.1251
      5 C           4.8059   -3.2440   20.5130 C.ar    1  UNL1        0.0215
      6 C           3.6848   -2.2909   20.2219 C.ar    1  UNL1        0.0205
      7 C           3.9713   -0.8303   20.0360 C.ar    1  UNL1        0.0814
      8 N           5.3789   -0.3228   20.1411 N.ar    1  UNL1       -0.2425
      9 C           6.5000   -1.2759   20.4322 C.ar    1  UNL1        0.1171
     10 C           2.8502    0.1229   19.7449 C.ar    1  UNL1        0.0177
     11 C           1.4853   -0.1286   20.3139 C.ar    1  UNL1        0.0024
     12 C           0.3642    0.8245   20.0229 C.ar    1  UNL1        0.0114
     13 C           0.6080    2.0291   19.1628 C.ar    1  UNL1        0.0577
     14 CL         -0.5131    2.9822   18.8718 Cl      1  UNL1       -0.0822
     15 C           1.9730    2.2805   18.5938 C.ar    1  UNL1        0.0114
     16 C           3.0940    1.3274   18.8849 C.ar    1  UNL1        0.0024
     17 C           8.4558   -4.6427   21.2003 C.3     1  UNL1        0.1823
     18 C           8.4405   -5.4560   22.4605 C.ar    1  UNL1        0.0014
     19 C           9.1426   -6.7807   22.5067 C.ar    1  UNL1       -0.0029
     20 C           9.1274   -7.5941   23.7670 C.ar    1  UNL1       -0.0048
     21 C           8.4101   -7.0826   24.9811 C.ar    1  UNL1       -0.0247
     22 C           7.7082   -5.7579   24.9349 C.ar    1  UNL1       -0.0250
     23 C           7.7233   -4.9445   23.6747 C.ar    1  UNL1       -0.0071
     24 C           6.9399   -5.0681   26.0230 C.3     1  UNL1        0.0431
     25 C           6.6839   -5.5328   27.4261 C.3     1  UNL1        0.0733
     26 N           7.1329   -6.8020   28.0875 N.3     1  UNL1       -0.2969
     27 C           7.9488   -7.9200   27.5093 C.3     1  UNL1        0.0733
     28 C           8.5173   -8.0449   26.1268 C.3     1  UNL1        0.0431
     29 H           6.2693   -7.2488   28.3957 H       1  UNL1        0.1233
@<TRIPOS>BOND
     1     1     2    2
     2     2     3    2
     3     2    17    1
     4    17    18    1
     5    18    19   ar
     6    19    20   ar
     7    20    21   ar
     8    21    22   ar
     9    22    23   ar
    10    22    24    1
    11    24    25    1
    12    25    26    1
    13    26    27    1
    14    27    28    1
    15     2     4    1
    16     4     5   ar
    17     5     6   ar
    18     6     7   ar
    19     7    10    1
    20    10    11   ar
    21    11    12   ar
    22    12    13   ar
    23    13    14    1
    24    13    15   ar
    25    15    16   ar
    26     7     8   ar
    27     8     9   ar
    28    23    18   ar
    29     9     4   ar
    30    28    21    1
    31    16    10   ar
    32    26    29    1
@<TRIPOS>MOLECULE
*****
 29 32 0 0 0
SMALL
GASTEIGER

@<TRIPOS>ATOM
      1 O           0.6842    3.7302   20.9466 O.2     1  UNL1       -0.1683
      2 S           0.0393    2.3939   20.7270 S.O2    1  UNL1        0.0143
      3 O          -0.6056    1.0575   20.5073 O.2     1  UNL1       -0.1683
      4 C          -1.2253    2.9011   21.3542 C.ar    1  UNL1        0.1251
      5 C          -1.2447    3.2742   22.8070 C.ar    1  UNL1        0.0215
      6 C          -2.5094    3.7814   23.4342 C.ar    1  UNL1        0.0205
      7 C          -3.7546    3.9155   22.6088 C.ar    1  UNL1        0.0814
      8 N          -3.7353    3.5424   21.1560 N.ar    1  UNL1       -0.2425
      9 C          -2.4706    3.0352   20.5287 C.ar    1  UNL1        0.1171
     10 C          -5.0193    4.4227   23.2359 C.ar    1  UNL1        0.0177
     11 C          -4.9536    5.3216   24.4350 C.ar    1  UNL1        0.0024
     12 C          -6.2182    5.8288   25.0622 C.ar    1  UNL1        0.0114
     13 C          -7.5486    5.4372   24.4904 C.ar    1  UNL1        0.0577
     14 CL         -8.8132    5.9445   25.1176 Cl      1  UNL1       -0.0822
     15 C          -7.6142    4.5383   23.2913 C.ar    1  UNL1        0.0114
     16 C          -6.3496    4.0312   22.6641 C.ar    1  UNL1        0.0024
     17 C           1.3039    1.8867   20.0997 C.3     1  UNL1        0.1823
     18 C           2.0455    0.7432   20.7262 C.ar    1  UNL1        0.0014
     19 C           2.4177    0.7963   22.1783 C.ar    1  UNL1       -0.0029
     20 C           3.1594   -0.3472   22.8048 C.ar    1  UNL1       -0.0048
     21 C           3.5287   -1.5438   21.9791 C.ar    1  UNL1       -0.0247
     22 C           3.1565   -1.5969   20.5271 C.ar    1  UNL1       -0.0250
     23 C           2.4149   -0.4535   19.9006 C.ar    1  UNL1       -0.0071
     24 C           3.4259   -2.6864   19.5318 C.3     1  UNL1        0.0431
     25 C           4.1341   -3.9918   19.7429 C.3     1  UNL1        0.0733
     26 N           4.7477   -4.5300   21.0013 N.3     1  UNL1       -0.2969
     27 C           4.8048   -3.8960   22.3595 C.3     1  UNL1        0.0733
     28 C           4.2623   -2.5670   22.7947 C.3     1  UNL1        0.0431
     29 H           5.7235   -4.6999   20.7574 H       1  UNL1        0.1233
@<TRIPOS>BOND
     1     1     2    2
     2     2     3    2
     3     2    17    1
     4    17    18    1
     5    18    19   ar
     6    19    20   ar
     7    20    21   ar
     8    21    22   ar
     9    22    23   ar
    10    22    24    1
    11    24    25    1
    12    25    26    1
    13    26    27    1
    14    27    28    1
    15     2     4    1
    16     4     5   ar
    17     5     6   ar
    18     6     7   ar
    19     7    10    1
    20    10    11   ar
    21    11    12   ar
    22    12    13   ar
    23    13    14    1
    24    13    15   ar
    25    15    16   ar
    26     7     8   ar
    27     8     9   ar
    28    23    18   ar
    29     9     4   ar
    30    28    21    1
    31    16    10   ar
    32    26    29    1
@<TRIPOS>MOLECULE
*****
 29 32 0 0 0
SMALL
GASTEIGER

@<TRIPOS>ATOM
      1 O           1.9148    3.3315   20.1601 O.2     1  UNL1       -0.1683
      2 S           1.2279    2.4408   19.1677 S.O2    1  UNL1        0.0143
      3 O           0.5410    1.5501   18.1753 O.2     1  UNL1       -0.1683
      4 C          -0.0944    2.7511   19.8043 C.ar    1  UNL1        0.1251
      5 C          -1.1784    3.4060   19.0006 C.ar    1  UNL1        0.0215
      6 C          -2.5007    3.7163   19.6373 C.ar    1  UNL1        0.0205
      7 C          -2.7389    3.3718   21.0776 C.ar    1  UNL1        0.0814
      8 N          -1.6549    2.7168   21.8813 N.ar    1  UNL1       -0.2425
      9 C          -0.3326    2.4065   21.2447 C.ar    1  UNL1        0.1171
     10 C          -4.0612    3.6821   21.7143 C.ar    1  UNL1        0.0177
     11 C          -4.2341    3.5290   23.1965 C.ar    1  UNL1        0.0024
     12 C          -5.5563    3.8393   23.8333 C.ar    1  UNL1        0.0114
     13 C          -6.7056    4.3026   22.9879 C.ar    1  UNL1        0.0577
     14 CL         -8.0278    4.6129   23.6247 Cl      1  UNL1       -0.0822
     15 C          -6.5326    4.4556   21.5058 C.ar    1  UNL1        0.0114
     16 C          -5.2104    4.1454   20.8691 C.ar    1  UNL1        0.0024
     17 C           2.5502    2.1304   18.5311 C.3     1  UNL1        0.1823
     18 C           3.1235    0.7478   18.6289 C.ar    1  UNL1        0.0014
     19 C           3.5846    0.0377   17.3907 C.ar    1  UNL1       -0.0029
     20 C           4.1580   -1.3449   17.4885 C.ar    1  UNL1       -0.0048
     21 C           4.2703   -2.0175   18.8247 C.ar    1  UNL1       -0.0247
     22 C           3.8093   -1.3074   20.0628 C.ar    1  UNL1       -0.0250
     23 C           3.2359    0.0752   19.9650 C.ar    1  UNL1       -0.0071
     24 C           3.8313   -1.7923   21.4821 C.3     1  UNL1        0.0431
     25 C           4.3199   -3.1072   22.0137 C.3     1  UNL1        0.0733
     26 N           4.9070   -4.2617   21.2573 N.3     1  UNL1       -0.2969
     27 C           5.1507   -4.3867   19.7825 C.3     1  UNL1        0.0733
     28 C           4.8673   -3.3879   18.6998 C.3     1  UNL1        0.0431
     29 H           4.3010   -5.0503   21.4838 H       1  UNL1        0.1233
@<TRIPOS>BOND
     1     1     2    2
     2     2     3    2
     3     2    17    1
     4    17    18    1
     5    18    19   ar
     6    19    20   ar
     7    20    21   ar
     8    21    22   ar
     9    22    23   ar
    10    22    24    1
    11    24    25    1
    12    25    26    1
    13    26    27    1
    14    27    28    1
    15     2     4    1
    16     4     5   ar
    17     5     6   ar
    18     6     7   ar
    19     7    10    1
    20    10    11   ar
    21    11    12   ar
    22    12    13   ar
    23    13    14    1
    24    13    15   ar
    25    15    16   ar
    26     7     8   ar
    27     8     9   ar
    28    23    18   ar
    29     9     4   ar
    30    28    21    1
    31    16    10   ar
    32    26    29    1
@<TRIPOS>MOLECULE
*****
 29 32 0 0 0
SMALL
GASTEIGER

@<TRIPOS>ATOM
      1 O           7.0188   -1.9346   20.1355 O.2     1  UNL1       -0.1683
      2 S           6.2230   -3.1522   19.7692 S.O2    1  UNL1        0.0143
      3 O           5.4271   -4.3698   19.4029 O.2     1  UNL1       -0.1683
      4 C           6.6776   -3.8282   21.0287 C.ar    1  UNL1        0.1251
      5 C           5.9348   -3.6010   22.3119 C.ar    1  UNL1        0.0215
      6 C           6.3895   -4.2771   23.5714 C.ar    1  UNL1        0.0205
      7 C           7.5868   -5.1803   23.5477 C.ar    1  UNL1        0.0814
      8 N           8.3296   -5.4075   22.2644 N.ar    1  UNL1       -0.2425
      9 C           7.8749   -4.7315   21.0049 C.ar    1  UNL1        0.1171
     10 C           8.0415   -5.8564   24.8071 C.ar    1  UNL1        0.0177
     11 C           8.0738   -7.3541   24.8846 C.ar    1  UNL1        0.0024
     12 C           8.5284   -8.0303   26.1440 C.ar    1  UNL1        0.0114
     13 C           8.9508   -7.2088   27.3259 C.ar    1  UNL1        0.0577
     14 CL          9.4055   -7.8850   28.5853 Cl      1  UNL1       -0.0822
     15 C           8.9185   -5.7111   27.2483 C.ar    1  UNL1        0.0114
     16 C           8.4639   -5.0350   25.9889 C.ar    1  UNL1        0.0024
     17 C           5.7683   -2.4761   18.5097 C.3     1  UNL1        0.1823
     18 C           4.8191   -1.3169   18.5814 C.ar    1  UNL1        0.0014
     19 C           5.1434   -0.0369   17.8697 C.ar    1  UNL1       -0.0029
     20 C           4.1942    1.1224   17.9414 C.ar    1  UNL1       -0.0048
     21 C           2.9207    1.0016   18.7248 C.ar    1  UNL1       -0.0247
     22 C           2.5965   -0.2783   19.4365 C.ar    1  UNL1       -0.0250
     23 C           3.5456   -1.4376   19.3648 C.ar    1  UNL1       -0.0071
     24 C           1.3909   -0.6076   20.2662 C.3     1  UNL1        0.0431
     25 C           0.2120    0.2618   20.5891 C.3     1  UNL1        0.0733
     26 N          -0.0526    1.6751   20.1621 N.3     1  UNL1       -0.2969
     27 C           0.7963    2.5682   19.3067 C.3     1  UNL1        0.0733
     28 C           2.1196    2.2685   18.6670 C.3     1  UNL1        0.0431
     29 H          -0.1646    2.1893   21.0359 H       1  UNL1        0.1233
@<TRIPOS>BOND
     1     1     2    2
     2     2     3    2
     3     2    17    1
     4    17    18    1
     5    18    19   ar
     6    19    20   ar
     7    20    21   ar
     8    21    22   ar
     9    22    23   ar
    10    22    24    1
    11    24    25    1
    12    25    26    1
    13    26    27    1
    14    27    28    1
    15     2     4    1
    16     4     5   ar
    17     5     6   ar
    18     6     7   ar
    19     7    10    1
    20    10    11   ar
    21    11    12   ar
    22    12    13   ar
    23    13    14    1
    24    13    15   ar
    25    15    16   ar
    26     7     8   ar
    27     8     9   ar
    28    23    18   ar
    29     9     4   ar
    30    28    21    1
    31    16    10   ar
    32    26    29    1
@<TRIPOS>MOLECULE
*****
 29 32 0 0 0
SMALL
GASTEIGER

@<TRIPOS>ATOM
      1 O         -14.6197    1.1393   18.5570 O.2     1  UNL1       -0.1683
      2 S         -15.6215    0.3159   19.3110 S.O2    1  UNL1        0.0143
      3 O         -16.6233   -0.5074   20.0650 O.2     1  UNL1       -0.1683
      4 C         -14.7096   -0.8720   19.2254 C.ar    1  UNL1        0.1251
      5 C         -14.9168   -2.0438   20.1387 C.ar    1  UNL1        0.0215
      6 C         -14.0048   -3.2317   20.0531 C.ar    1  UNL1        0.0205
      7 C         -12.8858   -3.2479   19.0544 C.ar    1  UNL1        0.0814
      8 N         -12.6787   -2.0760   18.1411 N.ar    1  UNL1       -0.2425
      9 C         -13.5905   -0.8881   18.2266 C.ar    1  UNL1        0.1171
     10 C         -11.9739   -4.4357   18.9688 C.ar    1  UNL1        0.0177
     11 C         -10.4872   -4.2389   18.9358 C.ar    1  UNL1        0.0024
     12 C          -9.5752   -5.4268   18.8502 C.ar    1  UNL1        0.0114
     13 C         -10.1498   -6.8114   18.7976 C.ar    1  UNL1        0.0577
     14 CL         -9.2378   -7.9992   18.7120 Cl      1  UNL1       -0.0822
     15 C         -11.6366   -7.0080   18.8305 C.ar    1  UNL1        0.0114
     16 C         -12.5485   -5.8203   18.9161 C.ar    1  UNL1        0.0024
     17 C         -16.5334    1.5039   19.3965 C.3     1  UNL1        0.1823
     18 C         -16.5240    2.3698   20.6212 C.ar    1  UNL1        0.0014
     19 C         -17.4585    2.0734   21.7565 C.ar    1  UNL1       -0.0029
     20 C         -17.4492    2.9394   22.9813 C.ar    1  UNL1       -0.0048
     21 C         -16.5052    4.1018   23.0707 C.ar    1  UNL1       -0.0247
     22 C         -15.5708    4.3981   21.9355 C.ar    1  UNL1       -0.0250
     23 C         -15.5801    3.5322   20.7107 C.ar    1  UNL1       -0.0071
     24 C         -14.5578    5.4986   21.8209 C.3     1  UNL1        0.0431
     25 C         -14.2292    6.5743   22.8133 C.3     1  UNL1        0.0733
     26 N         -14.8324    6.8153   24.1653 N.3     1  UNL1       -0.2969
     27 C         -15.9132    6.0402   24.8590 C.3     1  UNL1        0.0733
     28 C         -16.6577    4.8325   24.3718 C.3     1  UNL1        0.0431
     29 H         -15.1917    7.7688   24.1185 H       1  UNL1        0.1233
@<TRIPOS>BOND
     1     1     2    2
     2     2     3    2
     3     2    17    1
     4    17    18    1
     5    18    19   ar
     6    19    20   ar
     7    20    21   ar
     8    21    22   ar
     9    22    23   ar
    10    22    24    1
    11    24    25    1
    12    25    26    1
    13    26    27    1
    14    27    28    1
    15     2     4    1
    16     4     5   ar
    17     5     6   ar
    18     6     7   ar
    19     7    10    1
    20    10    11   ar
    21    11    12   ar
    22    12    13   ar
    23    13    14    1
    24    13    15   ar
    25    15    16   ar
    26     7     8   ar
    27     8     9   ar
    28    23    18   ar
    29     9     4   ar
    30    28    21    1
    31    16    10   ar
    32    26    29    1
@<TRIPOS>MOLECULE
*****
 29 32 0 0 0
SMALL
GASTEIGER

@<TRIPOS>ATOM
      1 O           0.2171    3.8019   23.8307 O.2     1  UNL1       -0.1683
      2 S          -0.1758    2.6231   24.6710 S.O2    1  UNL1        0.0143
      3 O          -0.5687    1.4444   25.5114 O.2     1  UNL1       -0.1683
      4 C           0.6114    1.7184   23.7701 C.ar    1  UNL1        0.1251
      5 C           1.6309    0.7838   24.3508 C.ar    1  UNL1        0.0215
      6 C           2.4181   -0.1210   23.4498 C.ar    1  UNL1        0.0205
      7 C           2.1859   -0.0912   21.9682 C.ar    1  UNL1        0.0814
      8 N           1.1664    0.8435   21.3875 N.ar    1  UNL1       -0.2425
      9 C           0.3792    1.7482   22.2884 C.ar    1  UNL1        0.1171
     10 C           2.9731   -0.9959   21.0672 C.ar    1  UNL1        0.0177
     11 C           2.9087   -0.8138   19.5796 C.ar    1  UNL1        0.0024
     12 C           3.6958   -1.7185   18.6785 C.ar    1  UNL1        0.0114
     13 C           4.5474   -2.8052   19.2650 C.ar    1  UNL1        0.0577
     14 CL          5.3345   -3.7099   18.3639 Cl      1  UNL1       -0.0822
     15 C           4.6117   -2.9872   20.7526 C.ar    1  UNL1        0.0114
     16 C           3.8246   -2.0826   21.6535 C.ar    1  UNL1        0.0024
     17 C          -0.9630    3.5279   25.5720 C.3     1  UNL1        0.1823
     18 C          -2.4141    3.7859   25.2935 C.ar    1  UNL1        0.0014
     19 C          -3.3454    4.1239   26.4198 C.ar    1  UNL1       -0.0029
     20 C          -4.7966    4.3819   26.1413 C.ar    1  UNL1       -0.0048
     21 C          -5.3165    4.3020   24.7365 C.ar    1  UNL1       -0.0247
     22 C          -4.3852    3.9641   23.6103 C.ar    1  UNL1       -0.0250
     23 C          -2.9341    3.7061   23.8887 C.ar    1  UNL1       -0.0071
     24 C          -4.6942    3.8339   22.1482 C.3     1  UNL1        0.0431
     25 C          -6.0110    4.0094   21.4514 C.3     1  UNL1        0.0733
     26 N          -7.3437    4.3585   22.0445 N.3     1  UNL1       -0.2969
     27 C          -7.6891    4.6183   23.4809 C.3     1  UNL1        0.0733
     28 C          -6.7868    4.5932   24.6790 C.3     1  UNL1        0.0431
     29 H          -7.9549    3.5894   21.7698 H       1  UNL1        0.1233
@<TRIPOS>BOND
     1     1     2    2
     2     2     3    2
     3     2    17    1
     4    17    18    1
     5    18    19   ar
     6    19    20   ar
     7    20    21   ar
     8    21    22   ar
     9    22    23   ar
    10    22    24    1
    11    24    25    1
    12    25    26    1
    13    26    27    1
    14    27    28    1
    15     2     4    1
    16     4     5   ar
    17     5     6   ar
    18     6     7   ar
    19     7    10    1
    20    10    11   ar
    21    11    12   ar
    22    12    13   ar
    23    13    14    1
    24    13    15   ar
    25    15    16   ar
    26     7     8   ar
    27     8     9   ar
    28    23    18   ar
    29     9     4   ar
    30    28    21    1
    31    16    10   ar
    32    26    29    1
@<TRIPOS>MOLECULE
*****
 29 32 0 0 0
SMALL
GASTEIGER

@<TRIPOS>ATOM
      1 O           1.1931    3.5608   23.7144 O.2     1  UNL1       -0.1683
      2 S           0.7052    2.2520   24.2612 S.O2    1  UNL1        0.0143
      3 O           0.2174    0.9431   24.8081 O.2     1  UNL1       -0.1683
      4 C          -0.6775    2.8197   24.3866 C.ar    1  UNL1        0.1251
      5 C          -1.3521    2.8625   25.7257 C.ar    1  UNL1        0.0215
      6 C          -2.7348    3.4303   25.8510 C.ar    1  UNL1        0.0205
      7 C          -3.4430    3.9552   24.6374 C.ar    1  UNL1        0.0814
      8 N          -2.7684    3.9124   23.2983 N.ar    1  UNL1       -0.2425
      9 C          -1.3856    3.3446   23.1729 C.ar    1  UNL1        0.1171
     10 C          -4.8257    4.5229   24.7627 C.ar    1  UNL1        0.0177
     11 C          -5.8135    4.3444   23.6480 C.ar    1  UNL1        0.0024
     12 C          -7.1963    4.9121   23.7732 C.ar    1  UNL1        0.0114
     13 C          -7.5913    5.6584   25.0131 C.ar    1  UNL1        0.0577
     14 CL         -8.9740    6.2261   25.1383 Cl      1  UNL1       -0.0822
     15 C          -6.6033    5.8369   26.1277 C.ar    1  UNL1        0.0114
     16 C          -5.2207    5.2692   26.0024 C.ar    1  UNL1        0.0024
     17 C           2.0880    1.6842   24.1358 C.3     1  UNL1        0.1823
     18 C           2.3878    0.6674   23.0746 C.ar    1  UNL1        0.0014
     19 C           1.8754    0.8666   21.6790 C.ar    1  UNL1       -0.0029
     20 C           2.1752   -0.1502   20.6177 C.ar    1  UNL1       -0.0048
     21 C           2.9874   -1.3662   20.9521 C.ar    1  UNL1       -0.0247
     22 C           3.4997   -1.5653   22.3477 C.ar    1  UNL1       -0.0250
     23 C           3.2000   -0.5486   23.4090 C.ar    1  UNL1       -0.0071
     24 C           4.3211   -2.6974   22.8898 C.3     1  UNL1        0.0431
     25 C           4.8330   -3.9099   22.1700 C.3     1  UNL1        0.0733
     26 N           4.6499   -4.2897   20.7306 N.3     1  UNL1       -0.2969
     27 C           3.9097   -3.5509   19.6552 C.3     1  UNL1        0.0733
     28 C           3.1698   -2.2498   19.7538 C.3     1  UNL1        0.0431
     29 H           4.2051   -5.2070   20.7630 H       1  UNL1        0.1233
@<TRIPOS>BOND
     1     1     2    2
     2     2     3    2
     3     2    17    1
     4    17    18    1
     5    18    19   ar
     6    19    20   ar
     7    20    21   ar
     8    21    22   ar
     9    22    23   ar
    10    22    24    1
    11    24    25    1
    12    25    26    1
    13    26    27    1
    14    27    28    1
    15     2     4    1
    16     4     5   ar
    17     5     6   ar
    18     6     7   ar
    19     7    10    1
    20    10    11   ar
    21    11    12   ar
    22    12    13   ar
    23    13    14    1
    24    13    15   ar
    25    15    16   ar
    26     7     8   ar
    27     8     9   ar
    28    23    18   ar
    29     9     4   ar
    30    28    21    1
    31    16    10   ar
    32    26    29    1
@<TRIPOS>MOLECULE
*****
 29 32 0 0 0
SMALL
GASTEIGER

@<TRIPOS>ATOM
      1 O           7.5096   -2.5999   21.1552 O.2     1  UNL1       -0.1683
      2 S           6.3709   -3.5751   21.1051 S.O2    1  UNL1        0.0143
      3 O           5.2323   -4.5503   21.0550 O.2     1  UNL1       -0.1683
      4 C           6.6391   -3.9613   22.5295 C.ar    1  UNL1        0.1251
      5 C           7.7176   -4.9544   22.8470 C.ar    1  UNL1        0.0215
      6 C           7.9856   -5.3405   24.2714 C.ar    1  UNL1        0.0205
      7 C           7.1753   -4.7338   25.3783 C.ar    1  UNL1        0.0814
      8 N           6.0968   -3.7408   25.0608 N.ar    1  UNL1       -0.2425
      9 C           5.8287   -3.3545   23.6364 C.ar    1  UNL1        0.1171
     10 C           7.4434   -5.1200   26.8027 C.ar    1  UNL1        0.0177
     11 C           8.7321   -5.7959   27.1666 C.ar    1  UNL1        0.0024
     12 C           9.0003   -6.1821   28.5911 C.ar    1  UNL1        0.0114
     13 C           7.9797   -5.8925   29.6516 C.ar    1  UNL1        0.0577
     14 CL          8.2478   -6.2787   31.0760 Cl      1  UNL1       -0.0822
     15 C           6.6910   -5.2166   29.2875 C.ar    1  UNL1        0.0114
     16 C           6.4229   -4.8304   27.8632 C.ar    1  UNL1        0.0024
     17 C           6.1028   -3.1888   19.6807 C.3     1  UNL1        0.1823
     18 C           5.0053   -2.2176   19.3609 C.ar    1  UNL1        0.0014
     19 C           4.8019   -1.7542   17.9488 C.ar    1  UNL1       -0.0029
     20 C           3.7044   -0.7829   17.6290 C.ar    1  UNL1       -0.0048
     21 C           2.8104   -0.2751   18.7212 C.ar    1  UNL1       -0.0247
     22 C           3.0139   -0.7385   20.1332 C.ar    1  UNL1       -0.0250
     23 C           4.1113   -1.7098   20.4531 C.ar    1  UNL1       -0.0071
     24 C           2.2418   -0.3599   21.3623 C.3     1  UNL1        0.0431
     25 C           1.0755    0.5758   21.4828 C.3     1  UNL1        0.0733
     26 N           0.3935    1.3638   20.4041 N.3     1  UNL1       -0.2969
     27 C           0.7090    1.4109   18.9384 C.3     1  UNL1        0.0733
     28 C           1.7847    0.6815   18.1894 C.3     1  UNL1        0.0431
     29 H           0.4649    2.3336   20.7121 H       1  UNL1        0.1233
@<TRIPOS>BOND
     1     1     2    2
     2     2     3    2
     3     2    17    1
     4    17    18    1
     5    18    19   ar
     6    19    20   ar
     7    20    21   ar
     8    21    22   ar
     9    22    23   ar
    10    22    24    1
    11    24    25    1
    12    25    26    1
    13    26    27    1
    14    27    28    1
    15     2     4    1
    16     4     5   ar
    17     5     6   ar
    18     6     7   ar
    19     7    10    1
    20    10    11   ar
    21    11    12   ar
    22    12    13   ar
    23    13    14    1
    24    13    15   ar
    25    15    16   ar
    26     7     8   ar
    27     8     9   ar
    28    23    18   ar
    29     9     4   ar
    30    28    21    1
    31    16    10   ar
    32    26    29    1
