@<TRIPOS>MOLECULE
*****
 28 32 0 0 0
SMALL
GASTEIGER

@<TRIPOS>ATOM
      1 N          -7.8219  -15.4332   24.5384 N.pl3   1  UNL1       -0.3133
      2 C          -6.7390  -16.2456   23.8924 C.2     1  UNL1        0.2770
      3 N          -6.9266  -17.2507   22.7948 N.2     1  UNL1       -0.2203
      4 C          -5.5820  -17.8220   22.4547 C.3     1  UNL1        0.1539
      5 C          -4.5634  -17.1700   23.3420 C.3     1  UNL1        0.2350
      6 O          -5.2785  -16.1958   24.2306 O.2     1  UNL1       -0.4478
      7 C          -6.7082  -18.3855   21.6397 C.ar    1  UNL1        0.0355
      8 C          -8.1117  -17.9084   21.8689 C.ar    1  UNL1        0.0007
      9 C          -9.2379  -18.4719   21.0540 C.ar    1  UNL1        0.0015
     10 C          -8.9606  -19.5125   20.0098 C.ar    1  UNL1        0.0031
     11 C          -7.5571  -19.9895   19.7806 C.ar    1  UNL1        0.0366
     12 C          -6.4308  -19.4260   20.5955 C.ar    1  UNL1        0.1363
     13 O          -5.0274  -19.9031   20.3663 O.3     1  UNL1       -0.4768
     14 C          -3.9011  -19.3396   21.1813 C.3     1  UNL1        0.1975
     15 C          -2.4976  -19.8167   20.9520 C.3     1  UNL1        0.1855
     16 O          -1.3715  -19.2532   21.7670 O.3     1  UNL1       -0.3499
     17 C          -1.6488  -18.2127   22.8112 C.3     1  UNL1        0.1425
     18 C          -3.0523  -17.7356   23.0404 C.3     1  UNL1        0.0381
     19 C          -4.1784  -18.2991   22.2254 C.3     1  UNL1        0.0734
     20 H          -8.7562  -15.5371   24.2460 H       1  UNL1        0.1466
     21 H          -7.5983  -14.7959   25.2548 H       1  UNL1        0.1466
     22 C         -10.6414  -17.9948   21.2832 C.ar    1  UNL1        0.0200
     23 C         -11.3389  -17.1834   20.2319 C.ar    1  UNL1        0.0989
     24 N         -12.7424  -16.7064   20.4612 N.ar    1  UNL1       -0.2414
     25 C         -13.4484  -17.0407   21.7417 C.ar    1  UNL1        0.1102
     26 C         -12.7509  -17.8520   22.7930 C.ar    1  UNL1        0.0768
     27 CL        -13.4569  -18.1863   24.0735 Cl      1  UNL1       -0.0806
     28 C         -11.3475  -18.3291   22.5638 C.ar    1  UNL1        0.0145
@<TRIPOS>BOND
     1     1     2    1
     2     2     3    2
     3     3     4    1
     4     4     5    1
     5     5     6    1
     6     4     7    1
     7     7     8   ar
     8     8     9   ar
     9     9    22    1
    10    22    23   ar
    11    23    24   ar
    12    24    25   ar
    13    25    26   ar
    14    26    27    1
    15    26    28   ar
    16     9    10   ar
    17    10    11   ar
    18    11    12   ar
    19    12    13    1
    20    13    14    1
    21    14    15    1
    22    15    16    1
    23    16    17    1
    24    17    18    1
    25    19    18    1
    26     6     2    1
    27    12     7   ar
    28    19    14    1
    29    19     4    1
    30    28    22   ar
    31     1    20    1
    32     1    21    1
@<TRIPOS>MOLECULE
*****
 28 32 0 0 0
SMALL
GASTEIGER

@<TRIPOS>ATOM
      1 N          -5.6533  -15.6235   23.7147 N.pl3   1  UNL1       -0.3133
      2 C          -7.0123  -16.1164   23.3145 C.2     1  UNL1        0.2770
      3 N          -7.2980  -17.2243   22.3445 N.2     1  UNL1       -0.2203
      4 C          -8.7865  -17.3806   22.2446 C.3     1  UNL1        0.1539
      5 C          -9.4207  -16.3693   23.1528 C.3     1  UNL1        0.2350
      6 O          -8.3242  -15.5879   23.8141 O.2     1  UNL1       -0.4478
      7 C          -8.0137  -18.3348   21.3831 C.ar    1  UNL1        0.0355
      8 C          -6.5141  -18.2959   21.3793 C.ar    1  UNL1        0.0007
      9 C          -5.7413  -19.2502   20.5178 C.ar    1  UNL1        0.0015
     10 C          -6.4680  -20.2434   19.6602 C.ar    1  UNL1        0.0031
     11 C          -7.9674  -20.2824   19.6641 C.ar    1  UNL1        0.0366
     12 C          -8.7403  -19.3281   20.5255 C.ar    1  UNL1        0.1363
     13 O         -10.2398  -19.3670   20.5293 O.3     1  UNL1       -0.4768
     14 C         -11.0127  -18.4127   21.3908 C.3     1  UNL1        0.1975
     15 C         -12.5121  -18.4517   21.3946 C.3     1  UNL1        0.1855
     16 O         -13.2849  -17.4974   22.2560 O.3     1  UNL1       -0.3499
     17 C         -12.5583  -16.5042   23.1136 C.3     1  UNL1        0.1425
     18 C         -11.0588  -16.4653   23.1098 C.3     1  UNL1        0.0381
     19 C         -10.2860  -17.4195   22.2484 C.3     1  UNL1        0.0734
     20 H          -4.8468  -16.0366   23.3298 H       1  UNL1        0.1466
     21 H          -5.5678  -14.8869   24.3623 H       1  UNL1        0.1466
     22 C          -4.2419  -19.2112   20.5140 C.ar    1  UNL1        0.0200
     23 C          -3.4711  -19.8931   21.6053 C.ar    1  UNL1        0.0989
     24 N          -1.9715  -19.8542   21.6014 N.ar    1  UNL1       -0.2414
     25 C          -1.2429  -19.1332   20.5064 C.ar    1  UNL1        0.1102
     26 C          -2.0136  -18.4513   19.4151 C.ar    1  UNL1        0.0768
     27 CL         -1.2849  -17.7304   18.3200 Cl      1  UNL1       -0.0806
     28 C          -3.5131  -18.4903   19.4189 C.ar    1  UNL1        0.0145
@<TRIPOS>BOND
     1     1     2    1
     2     2     3    2
     3     3     4    1
     4     4     5    1
     5     5     6    1
     6     4     7    1
     7     7     8   ar
     8     8     9   ar
     9     9    22    1
    10    22    23   ar
    11    23    24   ar
    12    24    25   ar
    13    25    26   ar
    14    26    27    1
    15    26    28   ar
    16     9    10   ar
    17    10    11   ar
    18    11    12   ar
    19    12    13    1
    20    13    14    1
    21    14    15    1
    22    15    16    1
    23    16    17    1
    24    17    18    1
    25    19    18    1
    26     6     2    1
    27    12     7   ar
    28    19    14    1
    29    19     4    1
    30    28    22   ar
    31     1    20    1
    32     1    21    1
@<TRIPOS>MOLECULE
*****
 28 32 0 0 0
SMALL
GASTEIGER

@<TRIPOS>ATOM
      1 N          -8.5561  -20.6645   19.2531 N.pl3   1  UNL1       -0.3133
      2 C          -7.3085  -20.1731   19.9253 C.2     1  UNL1        0.2770
      3 N          -7.2379  -19.1230   20.9942 N.2     1  UNL1       -0.2203
      4 C          -5.7982  -18.9464   21.3762 C.3     1  UNL1        0.1539
      5 C          -4.9789  -19.8873   20.5435 C.3     1  UNL1        0.2350
      6 O          -5.9123  -20.6454   19.6468 O.2     1  UNL1       -0.4478
      7 C          -6.7434  -18.0620   22.1341 C.ar    1  UNL1        0.0355
      8 C          -8.2165  -18.1282   21.8587 C.ar    1  UNL1        0.0007
      9 C          -9.1617  -17.2439   22.6165 C.ar    1  UNL1        0.0015
     10 C          -8.6339  -16.2933   23.6499 C.ar    1  UNL1        0.0031
     11 C          -7.1610  -16.2270   23.9254 C.ar    1  UNL1        0.0366
     12 C          -6.2157  -17.1114   23.1675 C.ar    1  UNL1        0.1363
     13 O          -4.7427  -17.0452   23.4429 O.3     1  UNL1       -0.4768
     14 C          -3.7974  -17.9296   22.6850 C.3     1  UNL1        0.1975
     15 C          -2.3244  -17.8633   22.9605 C.3     1  UNL1        0.1855
     16 O          -1.3792  -18.7477   22.2026 O.3     1  UNL1       -0.3499
     17 C          -1.9070  -19.6983   21.1693 C.3     1  UNL1        0.1425
     18 C          -3.3800  -19.7646   20.8938 C.3     1  UNL1        0.0381
     19 C          -4.3252  -18.8802   21.6517 C.3     1  UNL1        0.0734
     20 H          -9.4312  -20.2909   19.5058 H       1  UNL1        0.1466
     21 H          -8.4998  -21.3605   18.5591 H       1  UNL1        0.1466
     22 C         -10.6347  -17.3101   22.3411 C.ar    1  UNL1        0.0200
     23 C         -11.1560  -16.9977   20.9697 C.ar    1  UNL1        0.0989
     24 N         -12.6291  -17.0640   20.6943 N.ar    1  UNL1       -0.2414
     25 C         -13.5807  -17.4426   21.7902 C.ar    1  UNL1        0.1102
     26 C         -13.0593  -17.7550   23.1615 C.ar    1  UNL1        0.0768
     27 CL        -14.0109  -18.1336   24.2574 Cl      1  UNL1       -0.0806
     28 C         -11.5864  -17.6887   23.4370 C.ar    1  UNL1        0.0145
@<TRIPOS>BOND
     1     1     2    1
     2     2     3    2
     3     3     4    1
     4     4     5    1
     5     5     6    1
     6     4     7    1
     7     7     8   ar
     8     8     9   ar
     9     9    22    1
    10    22    23   ar
    11    23    24   ar
    12    24    25   ar
    13    25    26   ar
    14    26    27    1
    15    26    28   ar
    16     9    10   ar
    17    10    11   ar
    18    11    12   ar
    19    12    13    1
    20    13    14    1
    21    14    15    1
    22    15    16    1
    23    16    17    1
    24    17    18    1
    25    19    18    1
    26     6     2    1
    27    12     7   ar
    28    19    14    1
    29    19     4    1
    30    28    22   ar
    31     1    20    1
    32     1    21    1
@<TRIPOS>MOLECULE
*****
 28 32 0 0 0
SMALL
GASTEIGER

@<TRIPOS>ATOM
      1 N          -6.0220  -15.8450   24.9141 N.pl3   1  UNL1       -0.3133
      2 C          -5.1410  -16.4027   23.8357 C.2     1  UNL1        0.2770
      3 N          -5.5351  -17.4347   22.8211 N.2     1  UNL1       -0.2203
      4 C          -4.3489  -17.6962   21.9410 C.3     1  UNL1        0.1539
      5 C          -3.2217  -16.8258   22.4118 C.3     1  UNL1        0.2350
      6 O          -3.7112  -16.0263   23.5828 O.2     1  UNL1       -0.4478
      7 C          -5.5621  -18.5036   21.5855 C.ar    1  UNL1        0.0355
      8 C          -6.8254  -18.3481   22.3791 C.ar    1  UNL1        0.0007
      9 C          -8.0386  -19.1554   22.0236 C.ar    1  UNL1        0.0015
     10 C          -7.9885  -20.1183   20.8746 C.ar    1  UNL1        0.0031
     11 C          -6.7252  -20.2738   20.0809 C.ar    1  UNL1        0.0366
     12 C          -5.5119  -19.4664   20.4364 C.ar    1  UNL1        0.1363
     13 O          -4.2486  -19.6219   19.6428 O.3     1  UNL1       -0.4768
     14 C          -3.0354  -18.8145   19.9982 C.3     1  UNL1        0.1975
     15 C          -1.7721  -18.9700   19.2046 C.3     1  UNL1        0.1855
     16 O          -0.5590  -18.1627   19.5601 O.3     1  UNL1       -0.3499
     17 C          -0.6091  -17.1998   20.7092 C.3     1  UNL1        0.1425
     18 C          -1.8724  -17.0443   21.5028 C.3     1  UNL1        0.0381
     19 C          -3.0855  -17.8517   21.1473 C.3     1  UNL1        0.0734
     20 H          -6.9518  -16.1567   25.0003 H       1  UNL1        0.1466
     21 H          -5.6704  -15.1672   25.5355 H       1  UNL1        0.1466
     22 C          -9.3019  -18.9999   22.8173 C.ar    1  UNL1        0.0200
     23 C          -9.5253  -19.8353   24.0429 C.ar    1  UNL1        0.0989
     24 N         -10.7886  -19.6797   24.8366 N.ar    1  UNL1       -0.2414
     25 C         -11.8285  -18.6889   24.4045 C.ar    1  UNL1        0.1102
     26 C         -11.6052  -17.8535   23.1788 C.ar    1  UNL1        0.0768
     27 CL        -12.6451  -16.8626   22.7468 Cl      1  UNL1       -0.0806
     28 C         -10.3419  -18.0090   22.3852 C.ar    1  UNL1        0.0145
@<TRIPOS>BOND
     1     1     2    1
     2     2     3    2
     3     3     4    1
     4     4     5    1
     5     5     6    1
     6     4     7    1
     7     7     8   ar
     8     8     9   ar
     9     9    22    1
    10    22    23   ar
    11    23    24   ar
    12    24    25   ar
    13    25    26   ar
    14    26    27    1
    15    26    28   ar
    16     9    10   ar
    17    10    11   ar
    18    11    12   ar
    19    12    13    1
    20    13    14    1
    21    14    15    1
    22    15    16    1
    23    16    17    1
    24    17    18    1
    25    19    18    1
    26     6     2    1
    27    12     7   ar
    28    19    14    1
    29    19     4    1
    30    28    22   ar
    31     1    20    1
    32     1    21    1
@<TRIPOS>MOLECULE
*****
 28 32 0 0 0
SMALL
GASTEIGER

@<TRIPOS>ATOM
      1 N          -0.9589    2.2443   20.7452 N.pl3   1  UNL1       -0.3133
      2 C           0.2340    1.4707   20.2672 C.2     1  UNL1        0.2770
      3 N           1.2756    0.8303   21.1361 N.2     1  UNL1       -0.2203
      4 C           2.2801    0.1655   20.2423 C.3     1  UNL1        0.1539
      5 C           1.8594    0.3950   18.8209 C.3     1  UNL1        0.2350
      6 O           0.5948    1.2016   18.8363 O.2     1  UNL1       -0.4478
      7 C           2.5739    0.0181   21.7058 C.ar    1  UNL1        0.0355
      8 C           1.6552    0.6315   22.7207 C.ar    1  UNL1        0.0007
      9 C           1.9489    0.4842   24.1842 C.ar    1  UNL1        0.0015
     10 C           3.1613   -0.2766   24.6330 C.ar    1  UNL1        0.0031
     11 C           4.0800   -0.8900   23.6182 C.ar    1  UNL1        0.0366
     12 C           3.7863   -0.7426   22.1546 C.ar    1  UNL1        0.1363
     13 O           4.7049   -1.3560   21.1398 O.3     1  UNL1       -0.4768
     14 C           4.4112   -1.2087   19.6762 C.3     1  UNL1        0.1975
     15 C           5.3299   -1.8220   18.6615 C.3     1  UNL1        0.1855
     16 O           5.0361   -1.6747   17.1979 O.3     1  UNL1       -0.3499
     17 C           3.8237   -0.9140   16.7492 C.3     1  UNL1        0.1425
     18 C           2.9051   -0.3006   17.7639 C.3     1  UNL1        0.0381
     19 C           3.1988   -0.4479   19.2275 C.3     1  UNL1        0.0734
     20 H          -1.1112    2.3677   21.7100 H       1  UNL1        0.1466
     21 H          -1.5895    2.6286   20.0941 H       1  UNL1        0.1466
     22 C           1.0303    1.0975   25.1990 C.ar    1  UNL1        0.0200
     23 C           1.3308    0.9610   26.6622 C.ar    1  UNL1        0.0989
     24 N           0.4120    1.5744   27.6770 N.ar    1  UNL1       -0.2414
     25 C          -0.8071    2.3244   27.2285 C.ar    1  UNL1        0.1102
     26 C          -1.1076    2.4610   25.7653 C.ar    1  UNL1        0.0768
     27 CL         -2.3267    3.2109   25.3168 Cl      1  UNL1       -0.0806
     28 C          -0.1889    1.8476   24.7505 C.ar    1  UNL1        0.0145
@<TRIPOS>BOND
     1     1     2    1
     2     2     3    2
     3     3     4    1
     4     4     5    1
     5     5     6    1
     6     4     7    1
     7     7     8   ar
     8     8     9   ar
     9     9    22    1
    10    22    23   ar
    11    23    24   ar
    12    24    25   ar
    13    25    26   ar
    14    26    27    1
    15    26    28   ar
    16     9    10   ar
    17    10    11   ar
    18    11    12   ar
    19    12    13    1
    20    13    14    1
    21    14    15    1
    22    15    16    1
    23    16    17    1
    24    17    18    1
    25    19    18    1
    26     6     2    1
    27    12     7   ar
    28    19    14    1
    29    19     4    1
    30    28    22   ar
    31     1    20    1
    32     1    21    1
@<TRIPOS>MOLECULE
*****
 28 32 0 0 0
SMALL
GASTEIGER

@<TRIPOS>ATOM
      1 N          -6.4944  -21.4658   20.2300 N.pl3   1  UNL1       -0.3133
      2 C          -5.3451  -20.5121   20.3701 C.2     1  UNL1        0.2770
      3 N          -5.3273  -19.2705   21.2117 N.2     1  UNL1       -0.2203
      4 C          -3.9831  -18.6235   21.0551 C.3     1  UNL1        0.1539
      5 C          -3.1702  -19.4652   20.1166 C.3     1  UNL1        0.2350
      6 O          -4.0119  -20.6324   19.6933 O.2     1  UNL1       -0.4478
      7 C          -4.9117  -17.8861   21.9737 C.ar    1  UNL1        0.0355
      8 C          -6.2923  -18.4151   22.2273 C.ar    1  UNL1        0.0007
      9 C          -7.2209  -17.6777   23.1459 C.ar    1  UNL1        0.0015
     10 C          -6.7690  -16.4114   23.8109 C.ar    1  UNL1        0.0031
     11 C          -5.3885  -15.8824   23.5573 C.ar    1  UNL1        0.0366
     12 C          -4.4598  -16.6198   22.6387 C.ar    1  UNL1        0.1363
     13 O          -3.0793  -16.0909   22.3850 O.3     1  UNL1       -0.4768
     14 C          -2.1506  -16.8283   21.4664 C.3     1  UNL1        0.1975
     15 C          -0.7701  -16.2993   21.2128 C.3     1  UNL1        0.1855
     16 O           0.1585  -17.0367   20.2942 O.3     1  UNL1       -0.3499
     17 C          -0.2934  -18.3030   19.6292 C.3     1  UNL1        0.1425
     18 C          -1.6739  -18.8320   19.8828 C.3     1  UNL1        0.0381
     19 C          -2.6025  -18.0946   20.8014 C.3     1  UNL1        0.0734
     20 H          -7.3336  -21.3003   20.7174 H       1  UNL1        0.1466
     21 H          -6.4094  -22.2572   19.6506 H       1  UNL1        0.1466
     22 C          -8.6014  -18.2066   23.3996 C.ar    1  UNL1        0.0200
     23 C          -9.3227  -17.8448   24.6640 C.ar    1  UNL1        0.0989
     24 N         -10.7032  -18.3738   24.9176 N.ar    1  UNL1       -0.2414
     25 C         -11.3625  -19.2645   23.9068 C.ar    1  UNL1        0.1102
     26 C         -10.6413  -19.6264   22.6423 C.ar    1  UNL1        0.0768
     27 CL        -11.3005  -20.5171   21.6314 Cl      1  UNL1       -0.0806
     28 C          -9.2608  -19.0974   22.3887 C.ar    1  UNL1        0.0145
@<TRIPOS>BOND
     1     1     2    1
     2     2     3    2
     3     3     4    1
     4     4     5    1
     5     5     6    1
     6     4     7    1
     7     7     8   ar
     8     8     9   ar
     9     9    22    1
    10    22    23   ar
    11    23    24   ar
    12    24    25   ar
    13    25    26   ar
    14    26    27    1
    15    26    28   ar
    16     9    10   ar
    17    10    11   ar
    18    11    12   ar
    19    12    13    1
    20    13    14    1
    21    14    15    1
    22    15    16    1
    23    16    17    1
    24    17    18    1
    25    19    18    1
    26     6     2    1
    27    12     7   ar
    28    19    14    1
    29    19     4    1
    30    28    22   ar
    31     1    20    1
    32     1    21    1
@<TRIPOS>MOLECULE
*****
 28 32 0 0 0
SMALL
GASTEIGER

@<TRIPOS>ATOM
      1 N           4.3118   -2.0390   25.4412 N.pl3   1  UNL1       -0.3133
      2 C           4.2924   -1.9475   23.9441 C.2     1  UNL1        0.2770
      3 N           3.3948   -1.0671   23.1261 N.2     1  UNL1       -0.2203
      4 C           3.7149   -1.2957   21.6786 C.3     1  UNL1        0.1539
      5 C           4.8104   -2.3175   21.6020 C.3     1  UNL1        0.2350
      6 O           5.1673   -2.7203   23.0021 O.2     1  UNL1       -0.4478
      7 C           2.6274   -0.2892   21.9113 C.ar    1  UNL1        0.0355
      8 C           2.1994    0.0428   23.3101 C.ar    1  UNL1        0.0007
      9 C           1.1120    1.0494   23.5428 C.ar    1  UNL1        0.0015
     10 C           0.4524    1.7240   22.3767 C.ar    1  UNL1        0.0031
     11 C           0.8803    1.3921   20.9779 C.ar    1  UNL1        0.0366
     12 C           1.9678    0.3855   20.7452 C.ar    1  UNL1        0.1363
     13 O           2.3957    0.0535   19.3464 O.3     1  UNL1       -0.4768
     14 C           3.4832   -0.9531   19.1136 C.3     1  UNL1        0.1975
     15 C           3.9111   -1.2850   17.7148 C.3     1  UNL1        0.1855
     16 O           4.9986   -2.2916   17.4822 O.3     1  UNL1       -0.3499
     17 C           5.6582   -2.9662   18.6483 C.3     1  UNL1        0.1425
     18 C           5.2303   -2.6343   20.0471 C.3     1  UNL1        0.0381
     19 C           4.1428   -1.6277   20.2797 C.3     1  UNL1        0.0734
     20 H           3.6954   -1.4882   25.9760 H       1  UNL1        0.1466
     21 H           4.9408   -2.6497   25.8889 H       1  UNL1        0.1466
     22 C           0.6841    1.3813   24.9416 C.ar    1  UNL1        0.0200
     23 C           1.5342    0.9642   26.1049 C.ar    1  UNL1        0.0989
     24 N           1.1063    1.2962   27.5038 N.ar    1  UNL1       -0.2414
     25 C          -0.1717    2.0453   27.7393 C.ar    1  UNL1        0.1102
     26 C          -1.0219    2.4624   26.5760 C.ar    1  UNL1        0.0768
     27 CL         -2.2999    3.2114   26.8115 Cl      1  UNL1       -0.0806
     28 C          -0.5940    2.1304   25.1772 C.ar    1  UNL1        0.0145
@<TRIPOS>BOND
     1     1     2    1
     2     2     3    2
     3     3     4    1
     4     4     5    1
     5     5     6    1
     6     4     7    1
     7     7     8   ar
     8     8     9   ar
     9     9    22    1
    10    22    23   ar
    11    23    24   ar
    12    24    25   ar
    13    25    26   ar
    14    26    27    1
    15    26    28   ar
    16     9    10   ar
    17    10    11   ar
    18    11    12   ar
    19    12    13    1
    20    13    14    1
    21    14    15    1
    22    15    16    1
    23    16    17    1
    24    17    18    1
    25    19    18    1
    26     6     2    1
    27    12     7   ar
    28    19    14    1
    29    19     4    1
    30    28    22   ar
    31     1    20    1
    32     1    21    1
@<TRIPOS>MOLECULE
*****
 28 32 0 0 0
SMALL
GASTEIGER

@<TRIPOS>ATOM
      1 N           3.4957   -1.0160   26.1251 N.pl3   1  UNL1       -0.3133
      2 C           3.6893   -1.3526   24.6763 C.2     1  UNL1        0.2770
      3 N           2.9460   -0.7459   23.5232 N.2     1  UNL1       -0.2203
      4 C           3.4574   -1.3733   22.2604 C.3     1  UNL1        0.1539
      5 C           4.5168   -2.3677   22.6329 C.3     1  UNL1        0.2350
      6 O           4.6602   -2.3549   24.1260 O.2     1  UNL1       -0.4478
      7 C           2.3836   -0.3492   22.0413 C.ar    1  UNL1        0.0355
      8 C           1.7758    0.3628   23.2135 C.ar    1  UNL1        0.0007
      9 C           0.7020    1.3869   22.9944 C.ar    1  UNL1        0.0015
     10 C           0.2358    1.6991   21.6033 C.ar    1  UNL1        0.0031
     11 C           0.8435    0.9872   20.4312 C.ar    1  UNL1        0.0366
     12 C           1.9174   -0.0370   20.6502 C.ar    1  UNL1        0.1363
     13 O           2.5251   -0.7489   19.4781 O.3     1  UNL1       -0.4768
     14 C           3.5990   -1.7731   19.6971 C.3     1  UNL1        0.1975
     15 C           4.2067   -2.4850   18.5250 C.3     1  UNL1        0.1855
     16 O           5.2805   -3.5091   18.7441 O.3     1  UNL1       -0.3499
     17 C           5.7467   -3.8213   20.1352 C.3     1  UNL1        0.1425
     18 C           5.1390   -3.1094   21.3073 C.3     1  UNL1        0.0381
     19 C           4.0651   -2.0853   21.0882 C.3     1  UNL1        0.0734
     20 H           2.8300   -0.3403   26.3889 H       1  UNL1        0.1466
     21 H           4.0344   -1.4708   26.8124 H       1  UNL1        0.1466
     22 C           0.0943    2.0988   24.1665 C.ar    1  UNL1        0.0200
     23 C          -0.2539    3.5541   24.0619 C.ar    1  UNL1        0.0989
     24 N          -0.8616    4.2660   25.2341 N.ar    1  UNL1       -0.2414
     25 C          -1.1211    3.5226   26.5108 C.ar    1  UNL1        0.1102
     26 C          -0.7730    2.0673   26.6154 C.ar    1  UNL1        0.0768
     27 CL         -1.0325    1.3240   27.8921 Cl      1  UNL1       -0.0806
     28 C          -0.1653    1.3554   25.4433 C.ar    1  UNL1        0.0145
@<TRIPOS>BOND
     1     1     2    1
     2     2     3    2
     3     3     4    1
     4     4     5    1
     5     5     6    1
     6     4     7    1
     7     7     8   ar
     8     8     9   ar
     9     9    22    1
    10    22    23   ar
    11    23    24   ar
    12    24    25   ar
    13    25    26   ar
    14    26    27    1
    15    26    28   ar
    16     9    10   ar
    17    10    11   ar
    18    11    12   ar
    19    12    13    1
    20    13    14    1
    21    14    15    1
    22    15    16    1
    23    16    17    1
    24    17    18    1
    25    19    18    1
    26     6     2    1
    27    12     7   ar
    28    19    14    1
    29    19     4    1
    30    28    22   ar
    31     1    20    1
    32     1    21    1
@<TRIPOS>MOLECULE
*****
 28 32 0 0 0
SMALL
GASTEIGER

@<TRIPOS>ATOM
      1 N           4.2944   -1.4828   24.2778 N.pl3   1  UNL1       -0.3133
      2 C           3.1685   -0.4921   24.3057 C.2     1  UNL1        0.2770
      3 N           2.4234    0.0296   23.1129 N.2     1  UNL1       -0.2203
      4 C           1.3843    0.9950   23.6012 C.3     1  UNL1        0.1539
      5 C           1.4874    1.0700   25.0958 C.3     1  UNL1        0.2350
      6 O           2.5900    0.1510   25.5312 O.2     1  UNL1       -0.4478
      7 C           1.3996    0.8168   22.1120 C.ar    1  UNL1        0.0355
      8 C           2.3863   -0.1188   21.4786 C.ar    1  UNL1        0.0007
      9 C           2.4016   -0.2969   19.9893 C.ar    1  UNL1        0.0015
     10 C           1.4301    0.4604   19.1333 C.ar    1  UNL1        0.0031
     11 C           0.4434    1.3960   19.7667 C.ar    1  UNL1        0.0366
     12 C           0.4282    1.5742   21.2560 C.ar    1  UNL1        0.1363
     13 O          -0.5585    2.5097   21.8893 O.3     1  UNL1       -0.4768
     14 C          -0.5738    2.6879   23.3787 C.3     1  UNL1        0.1975
     15 C          -1.5605    3.6235   24.0120 C.3     1  UNL1        0.1855
     16 O          -1.5758    3.8017   25.5013 O.3     1  UNL1       -0.3499
     17 C          -0.6043    3.0443   26.3572 C.3     1  UNL1        0.1425
     18 C           0.3824    2.1087   25.7239 C.3     1  UNL1        0.0381
     19 C           0.3976    1.9306   24.2346 C.3     1  UNL1        0.0734
     20 H           4.6054   -1.8505   23.4191 H       1  UNL1        0.1466
     21 H           4.7225   -1.7652   25.1182 H       1  UNL1        0.1466
     22 C           3.3883   -1.2325   19.3560 C.ar    1  UNL1        0.0200
     23 C           4.4655   -0.6937   18.4620 C.ar    1  UNL1        0.0989
     24 N           5.4522   -1.6293   17.8286 N.ar    1  UNL1       -0.2414
     25 C           5.3617   -3.1037   18.0893 C.ar    1  UNL1        0.1102
     26 C           4.2845   -3.6425   18.9834 C.ar    1  UNL1        0.0768
     27 CL          4.1940   -5.1168   19.2441 Cl      1  UNL1       -0.0806
     28 C           3.2978   -2.7069   19.6167 C.ar    1  UNL1        0.0145
@<TRIPOS>BOND
     1     1     2    1
     2     2     3    2
     3     3     4    1
     4     4     5    1
     5     5     6    1
     6     4     7    1
     7     7     8   ar
     8     8     9   ar
     9     9    22    1
    10    22    23   ar
    11    23    24   ar
    12    24    25   ar
    13    25    26   ar
    14    26    27    1
    15    26    28   ar
    16     9    10   ar
    17    10    11   ar
    18    11    12   ar
    19    12    13    1
    20    13    14    1
    21    14    15    1
    22    15    16    1
    23    16    17    1
    24    17    18    1
    25    19    18    1
    26     6     2    1
    27    12     7   ar
    28    19    14    1
    29    19     4    1
    30    28    22   ar
    31     1    20    1
    32     1    21    1
