@<TRIPOS>MOLECULE
*****
 37 39 0 0 0
SMALL
GASTEIGER

@<TRIPOS>ATOM
      1 C         -10.0503  -18.4574   26.0797 C.3     1  UNL1        0.1152
      2 N          -9.7930  -18.2910   24.6113 N.am    1  UNL1       -0.2739
      3 C          -9.4088  -19.4776   23.7780 C.2     1  UNL1        0.2352
      4 O          -9.2818  -20.8306   24.4131 O.2     1  UNL1       -0.2743
      5 C          -9.1515  -19.3112   22.3097 C.3     1  UNL1        0.1703
      6 C          -7.7496  -19.1218   21.8106 C.2     1  UNL1        0.2354
      7 O          -7.4452  -18.0330   20.8247 O.2     1  UNL1       -0.2742
      8 N          -6.6523  -20.0211   22.2973 N.am    1  UNL1       -0.2835
      9 H          -6.8521  -20.7357   22.9444 H       1  UNL1        0.1549
     10 C          -5.2505  -19.8318   21.7982 C.ar    1  UNL1        0.0503
     11 C          -4.8601  -20.3476   20.4449 C.ar    1  UNL1        0.0144
     12 C          -3.4583  -20.1582   19.9459 C.ar    1  UNL1       -0.0016
     13 C          -2.4469  -19.4530   20.8001 C.ar    1  UNL1       -0.0047
     14 C          -2.8373  -18.9372   22.1535 C.ar    1  UNL1       -0.0016
     15 C          -4.2391  -19.1266   22.6525 C.ar    1  UNL1        0.0144
     16 C          -1.0451  -19.2637   20.3010 C.3     1  UNL1        0.1173
     17 N          -0.7256  -18.1276   19.3752 N.3     1  UNL1       -0.1788
     18 H          -0.1173  -18.5028   18.6475 H       1  UNL1        0.1488
     19 S          -1.8329  -17.3939   18.6782 S.O2    1  UNL1        0.0429
     20 C          -2.9402  -16.6604   17.9812 C.3     1  UNL1        0.1957
     21 O          -1.5200  -18.1282   17.4082 O.2     1  UNL1       -0.1574
     22 O          -2.1459  -16.6597   19.9482 O.2     1  UNL1       -0.1574
     23 C          -9.9200  -16.9380   23.9762 C.3     1  UNL1        0.1138
     24 C         -10.7358  -16.7686   22.7289 C.ar    1  UNL1       -0.0029
     25 C         -10.1664  -16.0284   21.5551 C.ar    1  UNL1       -0.0026
     26 C         -10.9822  -15.8590   20.3078 C.ar    1  UNL1       -0.0003
     27 C         -12.3675  -16.4297   20.2344 C.ar    1  UNL1       -0.0000
     28 C         -12.9369  -17.1699   21.4082 C.ar    1  UNL1       -0.0003
     29 C         -12.1210  -17.3393   22.6555 C.ar    1  UNL1       -0.0026
     30 C          -9.2311  -15.7545   24.5884 C.3     1  UNL1        0.0968
     31 N          -7.7330  -15.7048   24.6443 N.3     1  UNL1       -0.2689
     32 C          -6.9012  -15.5616   25.8843 C.3     1  UNL1        0.0748
     33 C          -5.4578  -15.5579   25.4764 C.3     1  UNL1        0.0480
     34 C          -5.3974  -15.6988   23.9843 C.3     1  UNL1        0.1278
     35 O          -4.1499  -15.7414   23.1524 O.3     1  UNL1       -0.3830
     36 C          -6.8036  -15.7896   23.4701 C.3     1  UNL1        0.1017
     37 H          -4.3882  -15.8379   22.2171 H       1  UNL1        0.2104
@<TRIPOS>BOND
     1     1     2    1
     2     2     3   am
     3     3     4    2
     4     3     5    1
     5     5     6    1
     6     6     7    2
     7     6     8   am
     8     8    10    1
     9    10    11   ar
    10    11    12   ar
    11    12    13   ar
    12    13    16    1
    13    16    17    1
    14    17    19    1
    15    19    20    1
    16    19    21    2
    17    19    22    2
    18    13    14   ar
    19    14    15   ar
    20     2    23    1
    21    23    30    1
    22    30    31    1
    23    31    32    1
    24    32    33    1
    25    33    34    1
    26    34    35    1
    27    34    36    1
    28    23    24    1
    29    24    25   ar
    30    25    26   ar
    31    26    27   ar
    32    27    28   ar
    33    28    29   ar
    34    15    10   ar
    35    36    31    1
    36    29    24   ar
    37     8     9    1
    38    17    18    1
    39    35    37    1
@<TRIPOS>MOLECULE
*****
 37 39 0 0 0
SMALL
GASTEIGER

@<TRIPOS>ATOM
      1 C         -10.1121  -20.4960   24.9781 C.3     1  UNL1        0.1152
      2 N          -9.8074  -19.3221   24.0952 N.am    1  UNL1       -0.2739
      3 C          -9.4889  -17.9887   24.7038 C.2     1  UNL1        0.2352
      4 O          -9.4749  -17.8290   26.1952 O.2     1  UNL1       -0.2743
      5 C          -9.1842  -16.8149   23.8209 C.3     1  UNL1        0.1703
      6 C          -7.8286  -16.6807   23.1928 C.2     1  UNL1        0.2354
      7 O          -7.7064  -16.3053   21.7457 O.2     1  UNL1       -0.2742
      8 N          -6.5953  -16.9220   24.0118 N.am    1  UNL1       -0.2835
      9 H          -6.6756  -17.1684   24.9615 H       1  UNL1        0.1549
     10 C          -5.2398  -16.7878   23.3836 C.ar    1  UNL1        0.0503
     11 C          -4.4269  -18.0126   23.0851 C.ar    1  UNL1        0.0144
     12 C          -3.0714  -17.8783   22.4570 C.ar    1  UNL1       -0.0016
     13 C          -2.5287  -16.5193   22.1275 C.ar    1  UNL1       -0.0047
     14 C          -3.3416  -15.2945   22.4260 C.ar    1  UNL1       -0.0016
     15 C          -4.6971  -15.4288   23.0541 C.ar    1  UNL1        0.0144
     16 C          -1.1732  -16.3851   21.4994 C.3     1  UNL1        0.1173
     17 N          -0.9707  -16.7683   20.0634 N.3     1  UNL1       -0.1788
     18 H           0.0107  -17.0279   19.9634 H       1  UNL1        0.1488
     19 S          -1.7765  -17.8823   19.4636 S.O2    1  UNL1        0.0429
     20 C          -2.5823  -18.9963   18.8638 C.3     1  UNL1        0.1957
     21 O          -0.7339  -18.8698   19.8969 O.2     1  UNL1       -0.1574
     22 O          -2.8191  -16.8949   19.0302 O.2     1  UNL1       -0.1574
     23 C          -9.8214  -19.4818   22.6038 C.3     1  UNL1        0.1138
     24 C          -8.5367  -19.7012   21.8610 C.ar    1  UNL1       -0.0029
     25 C          -7.3615  -20.3169   22.5607 C.ar    1  UNL1       -0.0026
     26 C          -6.0770  -20.5362   21.8179 C.ar    1  UNL1       -0.0003
     27 C          -5.9677  -20.1398   20.3753 C.ar    1  UNL1       -0.0000
     28 C          -7.1429  -19.5241   19.6756 C.ar    1  UNL1       -0.0003
     29 C          -8.4275  -19.3048   20.4184 C.ar    1  UNL1       -0.0026
     30 C         -11.1198  -19.4222   21.8552 C.3     1  UNL1        0.0968
     31 N         -11.6598  -18.1008   21.3943 N.3     1  UNL1       -0.2689
     32 C         -12.4486  -17.1325   22.2251 C.3     1  UNL1        0.0748
     33 C         -12.7821  -15.9490   21.3659 C.3     1  UNL1        0.0480
     34 C         -12.1995  -16.1859   20.0041 C.3     1  UNL1        0.1278
     35 O         -12.2939  -15.2562   18.8308 O.3     1  UNL1       -0.3830
     36 C         -11.5059  -17.5158   20.0217 C.3     1  UNL1        0.1017
     37 H         -11.8334  -15.6462   18.0714 H       1  UNL1        0.2104
@<TRIPOS>BOND
     1     1     2    1
     2     2     3   am
     3     3     4    2
     4     3     5    1
     5     5     6    1
     6     6     7    2
     7     6     8   am
     8     8    10    1
     9    10    11   ar
    10    11    12   ar
    11    12    13   ar
    12    13    16    1
    13    16    17    1
    14    17    19    1
    15    19    20    1
    16    19    21    2
    17    19    22    2
    18    13    14   ar
    19    14    15   ar
    20     2    23    1
    21    23    30    1
    22    30    31    1
    23    31    32    1
    24    32    33    1
    25    33    34    1
    26    34    35    1
    27    34    36    1
    28    23    24    1
    29    24    25   ar
    30    25    26   ar
    31    26    27   ar
    32    27    28   ar
    33    28    29   ar
    34    15    10   ar
    35    36    31    1
    36    29    24   ar
    37     8     9    1
    38    17    18    1
    39    35    37    1
@<TRIPOS>MOLECULE
*****
 37 39 0 0 0
SMALL
GASTEIGER

@<TRIPOS>ATOM
      1 C         -10.5206  -19.1661   25.6850 C.3     1  UNL1        0.1152
      2 N         -10.1124  -18.6303   24.3447 N.am    1  UNL1       -0.2739
      3 C          -9.9486  -19.5638   23.1821 C.2     1  UNL1        0.2352
      4 O         -10.1930  -21.0331   23.3597 O.2     1  UNL1       -0.2743
      5 C          -9.5403  -19.0281   21.8419 C.3     1  UNL1        0.1703
      6 C          -8.0913  -19.0008   21.4547 C.2     1  UNL1        0.2354
      7 O          -7.6461  -18.1927   20.2720 O.2     1  UNL1       -0.2742
      8 N          -7.0876  -19.7816   22.2503 N.am    1  UNL1       -0.2835
      9 H          -7.3798  -20.3119   23.0266 H       1  UNL1        0.1549
     10 C          -5.6386  -19.7543   21.8632 C.ar    1  UNL1        0.0503
     11 C          -4.6488  -19.0153   22.7140 C.ar    1  UNL1        0.0144
     12 C          -3.1999  -18.9881   22.3269 C.ar    1  UNL1       -0.0016
     13 C          -2.7409  -19.6998   21.0888 C.ar    1  UNL1       -0.0047
     14 C          -3.7307  -20.4387   20.2379 C.ar    1  UNL1       -0.0016
     15 C          -5.1796  -20.4660   20.6251 C.ar    1  UNL1        0.0144
     16 C          -1.2919  -19.6725   20.7017 C.3     1  UNL1        0.1173
     17 N          -0.7656  -18.5603   19.8438 N.3     1  UNL1       -0.1788
     18 H          -0.2098  -18.9945   19.1070 H       1  UNL1        0.1488
     19 S          -1.7184  -17.6182   19.1693 S.O2    1  UNL1        0.0429
     20 C          -2.6710  -16.6762   18.4948 C.3     1  UNL1        0.1957
     21 O          -1.7034  -16.7351   20.3817 O.2     1  UNL1       -0.1574
     22 O          -1.7333  -18.5013   17.9569 O.2     1  UNL1       -0.1574
     23 C          -9.8679  -17.1611   24.1671 C.3     1  UNL1        0.1138
     24 C          -8.5453  -16.5686   24.5543 C.ar    1  UNL1       -0.0029
     25 C          -8.2952  -16.1563   25.9746 C.ar    1  UNL1       -0.0026
     26 C          -6.9727  -15.5639   26.3617 C.ar    1  UNL1       -0.0003
     27 C          -5.9003  -15.3838   25.3285 C.ar    1  UNL1       -0.0000
     28 C          -6.1504  -15.7961   23.9082 C.ar    1  UNL1       -0.0003
     29 C          -7.4729  -16.3885   23.5211 C.ar    1  UNL1       -0.0026
     30 C         -10.9460  -16.2843   23.6023 C.3     1  UNL1        0.0968
     31 N         -11.0059  -16.0259   22.1260 N.3     1  UNL1       -0.2689
     32 C          -9.8804  -15.5204   21.2729 C.3     1  UNL1        0.0748
     33 C         -10.3808  -15.4097   19.8632 C.3     1  UNL1        0.0480
     34 C         -11.8155  -15.8468   19.8449 C.3     1  UNL1        0.1278
     35 O         -12.7074  -15.8947   18.6398 O.3     1  UNL1       -0.3830
     36 C         -12.2019  -16.2276   21.2434 C.3     1  UNL1        0.1017
     37 H         -13.5858  -16.2132   18.9001 H       1  UNL1        0.2104
@<TRIPOS>BOND
     1     1     2    1
     2     2     3   am
     3     3     4    2
     4     3     5    1
     5     5     6    1
     6     6     7    2
     7     6     8   am
     8     8    10    1
     9    10    11   ar
    10    11    12   ar
    11    12    13   ar
    12    13    16    1
    13    16    17    1
    14    17    19    1
    15    19    20    1
    16    19    21    2
    17    19    22    2
    18    13    14   ar
    19    14    15   ar
    20     2    23    1
    21    23    30    1
    22    30    31    1
    23    31    32    1
    24    32    33    1
    25    33    34    1
    26    34    35    1
    27    34    36    1
    28    23    24    1
    29    24    25   ar
    30    25    26   ar
    31    26    27   ar
    32    27    28   ar
    33    28    29   ar
    34    15    10   ar
    35    36    31    1
    36    29    24   ar
    37     8     9    1
    38    17    18    1
    39    35    37    1
@<TRIPOS>MOLECULE
*****
 37 39 0 0 0
SMALL
GASTEIGER

@<TRIPOS>ATOM
      1 C           5.9482    0.4299   18.0445 C.3     1  UNL1        0.1152
      2 N           5.2132   -0.7581   18.5910 N.am    1  UNL1       -0.2739
      3 C           5.6979   -2.1447   18.2873 C.2     1  UNL1        0.2352
      4 O           6.9177   -2.3434   17.4372 O.2     1  UNL1       -0.2743
      5 C           4.9629   -3.3326   18.8337 C.3     1  UNL1        0.1703
      6 C           5.2559   -3.8230   20.2207 C.2     1  UNL1        0.2354
      7 O           4.3051   -4.7633   20.9002 O.2     1  UNL1       -0.2742
      8 N           6.4998   -3.3731   20.9281 N.am    1  UNL1       -0.2835
      9 H           7.1238   -2.7560   20.4821 H       1  UNL1        0.1549
     10 C           6.7928   -3.8635   22.3151 C.ar    1  UNL1        0.0503
     11 C           6.0091   -3.3336   23.4791 C.ar    1  UNL1        0.0144
     12 C           6.3021   -3.8240   24.8660 C.ar    1  UNL1       -0.0016
     13 C           7.3789   -4.8443   25.0889 C.ar    1  UNL1       -0.0047
     14 C           8.1625   -5.3742   23.9249 C.ar    1  UNL1       -0.0016
     15 C           7.8695   -4.8838   22.5380 C.ar    1  UNL1        0.0144
     16 C           7.6719   -5.3347   26.4760 C.3     1  UNL1        0.1173
     17 N           6.9777   -6.5559   27.0019 N.3     1  UNL1       -0.1788
     18 H           6.2489   -6.7932   26.3289 H       1  UNL1        0.1488
     19 S           7.7582   -7.8115   27.2557 S.O2    1  UNL1        0.0429
     20 C           8.5387   -9.0670   27.5095 C.3     1  UNL1        0.1957
     21 O           8.4319   -7.1564   28.4249 O.2     1  UNL1       -0.1574
     22 O           7.0846   -8.4666   26.0866 O.2     1  UNL1       -0.1574
     23 C           3.9934   -0.5594   19.4411 C.3     1  UNL1        0.1138
     24 C           4.1300   -0.4234   20.9287 C.ar    1  UNL1       -0.0029
     25 C           3.1425   -1.0940   21.8369 C.ar    1  UNL1       -0.0026
     26 C           3.2791   -0.9580   23.3245 C.ar    1  UNL1       -0.0003
     27 C           4.4033   -0.1514   23.9037 C.ar    1  UNL1       -0.0000
     28 C           5.3908    0.5193   22.9955 C.ar    1  UNL1       -0.0003
     29 C           5.2542    0.3832   21.5079 C.ar    1  UNL1       -0.0026
     30 C           2.6370   -0.4967   18.8036 C.3     1  UNL1        0.0968
     31 N           1.7150    0.6453   19.1130 N.3     1  UNL1       -0.2689
     32 C           1.8578    2.0533   18.6161 C.3     1  UNL1        0.0748
     33 C           0.7193    2.8580   19.1697 C.3     1  UNL1        0.0480
     34 C          -0.1272    1.9472   20.0087 C.3     1  UNL1        0.1278
     35 O          -1.3706    2.3357   20.7522 O.3     1  UNL1       -0.3830
     36 C           0.4882    0.5797   19.9737 C.3     1  UNL1        0.1017
     37 H          -1.7257    1.5609   21.2154 H       1  UNL1        0.2104
@<TRIPOS>BOND
     1     1     2    1
     2     2     3   am
     3     3     4    2
     4     3     5    1
     5     5     6    1
     6     6     7    2
     7     6     8   am
     8     8    10    1
     9    10    11   ar
    10    11    12   ar
    11    12    13   ar
    12    13    16    1
    13    16    17    1
    14    17    19    1
    15    19    20    1
    16    19    21    2
    17    19    22    2
    18    13    14   ar
    19    14    15   ar
    20     2    23    1
    21    23    30    1
    22    30    31    1
    23    31    32    1
    24    32    33    1
    25    33    34    1
    26    34    35    1
    27    34    36    1
    28    23    24    1
    29    24    25   ar
    30    25    26   ar
    31    26    27   ar
    32    27    28   ar
    33    28    29   ar
    34    15    10   ar
    35    36    31    1
    36    29    24   ar
    37     8     9    1
    38    17    18    1
    39    35    37    1
@<TRIPOS>MOLECULE
*****
 37 39 0 0 0
SMALL
GASTEIGER

@<TRIPOS>ATOM
      1 C          -9.8937  -19.4328   25.3289 C.3     1  UNL1        0.1152
      2 N          -9.3650  -18.1730   24.7097 N.am    1  UNL1       -0.2739
      3 C          -8.9807  -17.0134   25.5801 C.2     1  UNL1        0.2352
      4 O          -9.1250  -17.1136   27.0698 O.2     1  UNL1       -0.2743
      5 C          -8.4521  -15.7536   24.9609 C.3     1  UNL1        0.1703
      6 C          -7.2257  -15.7992   24.0982 C.2     1  UNL1        0.2354
      7 O          -7.2616  -15.2255   22.7127 O.2     1  UNL1       -0.2742
      8 N          -5.9636  -16.4185   24.6211 N.am    1  UNL1       -0.2835
      9 H          -5.9400  -16.7951   25.5304 H       1  UNL1        0.1549
     10 C          -4.7372  -16.4641   23.7584 C.ar    1  UNL1        0.0503
     11 C          -3.9818  -17.7498   23.5961 C.ar    1  UNL1        0.0144
     12 C          -2.7555  -17.7953   22.7335 C.ar    1  UNL1       -0.0016
     13 C          -2.2847  -16.5552   22.0332 C.ar    1  UNL1       -0.0047
     14 C          -3.0401  -15.2696   22.1955 C.ar    1  UNL1       -0.0016
     15 C          -4.2664  -15.2240   23.0581 C.ar    1  UNL1        0.0144
     16 C          -1.0583  -16.6008   21.1706 C.3     1  UNL1        0.1173
     17 N          -1.1532  -17.0957   19.7578 N.3     1  UNL1       -0.1788
     18 H          -0.2218  -17.4189   19.4959 H       1  UNL1        0.1488
     19 S          -2.1078  -18.2000   19.4123 S.O2    1  UNL1        0.0429
     20 C          -3.0624  -19.3042   19.0669 C.3     1  UNL1        0.1957
     21 O          -1.1230  -19.2105   19.9212 O.2     1  UNL1       -0.1574
     22 O          -3.0926  -17.1894   18.9035 O.2     1  UNL1       -0.1574
     23 C          -9.2207  -18.0728   23.2200 C.3     1  UNL1        0.1138
     24 C         -10.3457  -17.5250   22.3927 C.ar    1  UNL1       -0.0029
     25 C         -11.7052  -18.1547   22.4645 C.ar    1  UNL1       -0.0026
     26 C         -12.8300  -17.6069   21.6371 C.ar    1  UNL1       -0.0003
     27 C         -12.5955  -16.4294   20.7381 C.ar    1  UNL1       -0.0000
     28 C         -11.2360  -15.7996   20.6663 C.ar    1  UNL1       -0.0003
     29 C         -10.1111  -16.3474   21.4936 C.ar    1  UNL1       -0.0026
     30 C          -7.9515  -18.5203   22.5577 C.3     1  UNL1        0.0968
     31 N          -7.9823  -19.0387   21.1504 N.3     1  UNL1       -0.2689
     32 C          -6.8330  -19.0416   20.1865 C.3     1  UNL1        0.0748
     33 C          -7.3082  -19.6500   18.9004 C.3     1  UNL1        0.0480
     34 C          -8.7512  -20.0230   19.0694 C.3     1  UNL1        0.1278
     35 O          -9.6243  -20.6617   18.0303 O.3     1  UNL1       -0.3830
     36 C          -9.1678  -19.6453   20.4600 C.3     1  UNL1        0.1017
     37 H         -10.5132  -20.7976   18.3940 H       1  UNL1        0.2104
@<TRIPOS>BOND
     1     1     2    1
     2     2     3   am
     3     3     4    2
     4     3     5    1
     5     5     6    1
     6     6     7    2
     7     6     8   am
     8     8    10    1
     9    10    11   ar
    10    11    12   ar
    11    12    13   ar
    12    13    16    1
    13    16    17    1
    14    17    19    1
    15    19    20    1
    16    19    21    2
    17    19    22    2
    18    13    14   ar
    19    14    15   ar
    20     2    23    1
    21    23    30    1
    22    30    31    1
    23    31    32    1
    24    32    33    1
    25    33    34    1
    26    34    35    1
    27    34    36    1
    28    23    24    1
    29    24    25   ar
    30    25    26   ar
    31    26    27   ar
    32    27    28   ar
    33    28    29   ar
    34    15    10   ar
    35    36    31    1
    36    29    24   ar
    37     8     9    1
    38    17    18    1
    39    35    37    1
@<TRIPOS>MOLECULE
*****
 37 39 0 0 0
SMALL
GASTEIGER

@<TRIPOS>ATOM
      1 C           0.7107    4.9319   25.6658 C.3     1  UNL1        0.1152
      2 N          -0.1065    4.0417   24.7769 N.am    1  UNL1       -0.2739
      3 C           0.0963    4.0753   23.2911 C.2     1  UNL1        0.2352
      4 O           1.1162    4.9991   22.6940 O.2     1  UNL1       -0.2743
      5 C          -0.7208    3.1852   22.4024 C.3     1  UNL1        0.1703
      6 C          -0.0476    2.3511   21.3530 C.2     1  UNL1        0.2354
      7 O          -0.8598    1.7212   20.2605 O.2     1  UNL1       -0.2742
      8 N           1.4378    2.1469   21.3961 N.am    1  UNL1       -0.2835
      9 H           1.9709    2.5603   22.1132 H       1  UNL1        0.1549
     10 C           2.1110    1.3128   20.3467 C.ar    1  UNL1        0.0503
     11 C           2.1069   -0.1829   20.4608 C.ar    1  UNL1        0.0144
     12 C           2.7801   -1.0169   19.4115 C.ar    1  UNL1       -0.0016
     13 C           3.4574   -0.3553   18.2480 C.ar    1  UNL1       -0.0047
     14 C           3.4614    1.1403   18.1339 C.ar    1  UNL1       -0.0016
     15 C           2.7882    1.9744   19.1833 C.ar    1  UNL1        0.0144
     16 C           4.1306   -1.1894   17.1986 C.3     1  UNL1        0.1173
     17 N           4.8574   -2.4422   17.5886 N.3     1  UNL1       -0.1788
     18 H           5.0180   -2.9688   16.7300 H       1  UNL1        0.1488
     19 S           6.1773   -2.3542   18.2960 S.O2    1  UNL1        0.0429
     20 C           7.4971   -2.2663   19.0033 C.3     1  UNL1        0.1957
     21 O           5.6496   -3.2345   19.3899 O.2     1  UNL1       -0.1574
     22 O           6.7050   -1.4740   17.2021 O.2     1  UNL1       -0.1574
     23 C          -1.1263    3.1179   25.3740 C.3     1  UNL1        0.1138
     24 C          -2.5472    3.5717   25.5333 C.ar    1  UNL1       -0.0029
     25 C          -2.9822    4.2435   26.8018 C.ar    1  UNL1       -0.0026
     26 C          -4.4031    4.6973   26.9610 C.ar    1  UNL1       -0.0003
     27 C          -5.3888    4.4792   25.8517 C.ar    1  UNL1       -0.0000
     28 C          -4.9538    3.8073   24.5831 C.ar    1  UNL1       -0.0003
     29 C          -3.5330    3.3536   24.4239 C.ar    1  UNL1       -0.0026
     30 C          -0.7254    1.7404   25.8118 C.3     1  UNL1        0.0968
     31 N           0.0768    1.5558   27.0658 N.3     1  UNL1       -0.2689
     32 C           1.5706    1.4482   27.1491 C.3     1  UNL1        0.0748
     33 C           1.9430    1.2722   28.5914 C.3     1  UNL1        0.0480
     34 C           0.6793    1.2710   29.3996 C.3     1  UNL1        0.1278
     35 O           0.5855    1.1209   30.8891 O.3     1  UNL1       -0.3830
     36 C          -0.4740    1.4463   28.4567 C.3     1  UNL1        0.1017
     37 H          -0.3455    1.1542   31.1594 H       1  UNL1        0.2104
@<TRIPOS>BOND
     1     1     2    1
     2     2     3   am
     3     3     4    2
     4     3     5    1
     5     5     6    1
     6     6     7    2
     7     6     8   am
     8     8    10    1
     9    10    11   ar
    10    11    12   ar
    11    12    13   ar
    12    13    16    1
    13    16    17    1
    14    17    19    1
    15    19    20    1
    16    19    21    2
    17    19    22    2
    18    13    14   ar
    19    14    15   ar
    20     2    23    1
    21    23    30    1
    22    30    31    1
    23    31    32    1
    24    32    33    1
    25    33    34    1
    26    34    35    1
    27    34    36    1
    28    23    24    1
    29    24    25   ar
    30    25    26   ar
    31    26    27   ar
    32    27    28   ar
    33    28    29   ar
    34    15    10   ar
    35    36    31    1
    36    29    24   ar
    37     8     9    1
    38    17    18    1
    39    35    37    1
@<TRIPOS>MOLECULE
*****
 37 39 0 0 0
SMALL
GASTEIGER

@<TRIPOS>ATOM
      1 C           7.0598    2.3335   36.2261 C.3     1  UNL1        0.1152
      2 N           5.8711    1.5868   35.6975 N.am    1  UNL1       -0.2739
      3 C           6.0055    0.1461   35.3020 C.2     1  UNL1        0.2352
      4 O           7.3286   -0.5479   35.4352 O.2     1  UNL1       -0.2743
      5 C           4.8168   -0.6005   34.7735 C.3     1  UNL1        0.1703
      6 C           4.9976   -1.6406   33.7077 C.2     1  UNL1        0.2354
      7 O           3.8889   -2.6044   33.4047 O.2     1  UNL1       -0.2742
      8 N           6.2869   -1.7168   32.9451 N.am    1  UNL1       -0.2835
      9 H           7.0146   -1.0842   33.1440 H       1  UNL1        0.1549
     10 C           6.4677   -2.7568   31.8794 C.ar    1  UNL1        0.0503
     11 C           6.7345   -4.1828   32.2606 C.ar    1  UNL1        0.0144
     12 C           6.9153   -5.2227   31.1949 C.ar    1  UNL1       -0.0016
     13 C           6.8292   -4.8367   29.7479 C.ar    1  UNL1       -0.0047
     14 C           6.5623   -3.4107   29.3667 C.ar    1  UNL1       -0.0016
     15 C           6.3816   -2.3708   30.4324 C.ar    1  UNL1        0.0144
     16 C           7.0099   -5.8768   28.6822 C.3     1  UNL1        0.1173
     17 N           6.2199   -5.7921   27.4100 N.3     1  UNL1       -0.1788
     18 H           5.6833   -4.9257   27.4537 H       1  UNL1        0.1488
     19 S           6.9262   -5.7978   26.0867 S.O2    1  UNL1        0.0429
     20 C           7.6326   -5.8034   24.7634 C.3     1  UNL1        0.1957
     21 O           7.1449   -7.2766   26.2097 O.2     1  UNL1       -0.1574
     22 O           6.7076   -4.3189   25.9636 O.2     1  UNL1       -0.1574
     23 C           4.5480    2.2808   35.5643 C.3     1  UNL1        0.1138
     24 C           3.5584    2.2314   36.6906 C.ar    1  UNL1       -0.0029
     25 C           3.5625    1.0719   37.6422 C.ar    1  UNL1       -0.0026
     26 C           2.5730    1.0225   38.7683 C.ar    1  UNL1       -0.0003
     27 C           1.5794    2.1326   38.9430 C.ar    1  UNL1       -0.0000
     28 C           1.5753    3.2921   37.9914 C.ar    1  UNL1       -0.0003
     29 C           2.5649    3.3414   36.8652 C.ar    1  UNL1       -0.0026
     30 C           4.2144    3.0241   34.3049 C.3     1  UNL1        0.0968
     31 N           3.1690    2.4883   33.3722 N.3     1  UNL1       -0.2689
     32 C           1.7515    2.9675   33.2677 C.3     1  UNL1        0.0748
     33 C           1.0639    2.1545   32.2111 C.3     1  UNL1        0.0480
     34 C           2.0565    1.1728   31.6626 C.3     1  UNL1        0.1278
     35 O           1.7943    0.1622   30.5856 O.3     1  UNL1       -0.3830
     36 C           3.3575    1.3791   32.3802 C.3     1  UNL1        0.1017
     37 H           2.6020   -0.3478   30.4172 H       1  UNL1        0.2104
@<TRIPOS>BOND
     1     1     2    1
     2     2     3   am
     3     3     4    2
     4     3     5    1
     5     5     6    1
     6     6     7    2
     7     6     8   am
     8     8    10    1
     9    10    11   ar
    10    11    12   ar
    11    12    13   ar
    12    13    16    1
    13    16    17    1
    14    17    19    1
    15    19    20    1
    16    19    21    2
    17    19    22    2
    18    13    14   ar
    19    14    15   ar
    20     2    23    1
    21    23    30    1
    22    30    31    1
    23    31    32    1
    24    32    33    1
    25    33    34    1
    26    34    35    1
    27    34    36    1
    28    23    24    1
    29    24    25   ar
    30    25    26   ar
    31    26    27   ar
    32    27    28   ar
    33    28    29   ar
    34    15    10   ar
    35    36    31    1
    36    29    24   ar
    37     8     9    1
    38    17    18    1
    39    35    37    1
@<TRIPOS>MOLECULE
*****
 37 39 0 0 0
SMALL
GASTEIGER

@<TRIPOS>ATOM
      1 C          -0.8834    6.0998   25.1254 C.3     1  UNL1        0.1152
      2 N          -1.0821    4.6468   24.8099 N.am    1  UNL1       -0.2739
      3 C          -0.0803    3.9194   23.9630 C.2     1  UNL1        0.2352
      4 O           1.1202    4.6448   23.4315 O.2     1  UNL1       -0.2743
      5 C          -0.2791    2.4665   23.6476 C.3     1  UNL1        0.1703
      6 C           0.2874    1.8889   22.3844 C.2     1  UNL1        0.2354
      7 O          -0.5735    1.7704   21.1618 O.2     1  UNL1       -0.2742
      8 N           1.7149    1.4298   22.3438 N.am    1  UNL1       -0.2835
      9 H           2.2799    1.5076   23.1463 H       1  UNL1        0.1549
     10 C           2.2814    0.8522   21.0807 C.ar    1  UNL1        0.0503
     11 C           2.9708    1.7443   20.0913 C.ar    1  UNL1        0.0144
     12 C           3.5372    1.1667   18.8282 C.ar    1  UNL1       -0.0016
     13 C           3.4143   -0.3030   18.5545 C.ar    1  UNL1       -0.0047
     14 C           2.7249   -1.1951   19.5439 C.ar    1  UNL1       -0.0016
     15 C           2.1585   -0.6175   20.8070 C.ar    1  UNL1        0.0144
     16 C           3.9808   -0.8806   17.2913 C.3     1  UNL1        0.1173
     17 N           4.7673   -2.1571   17.3371 N.3     1  UNL1       -0.1788
     18 H           4.9516   -2.4241   16.3701 H       1  UNL1        0.1488
     19 S           6.0824   -2.2024   18.0571 S.O2    1  UNL1        0.0429
     20 C           7.3976   -2.2476   18.7770 C.3     1  UNL1        0.1957
     21 O           6.6031   -1.1067   17.1748 O.2     1  UNL1       -0.1574
     22 O           5.5618   -3.2980   18.9393 O.2     1  UNL1       -0.1574
     23 C          -2.2826    3.9213   25.3414 C.3     1  UNL1        0.1138
     24 C          -3.5593    3.9065   24.5540 C.ar    1  UNL1       -0.0029
     25 C          -4.8502    4.2960   25.2111 C.ar    1  UNL1       -0.0026
     26 C          -6.1269    4.2812   24.4238 C.ar    1  UNL1       -0.0003
     27 C          -6.1126    3.8770   22.9794 C.ar    1  UNL1       -0.0000
     28 C          -4.8217    3.4875   22.3223 C.ar    1  UNL1       -0.0003
     29 C          -3.5450    3.5023   23.1096 C.ar    1  UNL1       -0.0026
     30 C          -2.2064    3.2106   26.6601 C.3     1  UNL1        0.0968
     31 N          -0.9083    2.6134   27.1163 N.3     1  UNL1       -0.2689
     32 C           0.2453    3.3630   27.7141 C.3     1  UNL1        0.0748
     33 C           1.3307    2.3746   28.0221 C.3     1  UNL1        0.0480
     34 C           0.8480    1.0141   27.6148 C.3     1  UNL1        0.1278
     35 O           1.6144   -0.2688   27.7444 O.3     1  UNL1       -0.3830
     36 C          -0.5358    1.1617   27.0550 C.3     1  UNL1        0.1017
     37 H           1.0763   -1.0024   27.4080 H       1  UNL1        0.2104
@<TRIPOS>BOND
     1     1     2    1
     2     2     3   am
     3     3     4    2
     4     3     5    1
     5     5     6    1
     6     6     7    2
     7     6     8   am
     8     8    10    1
     9    10    11   ar
    10    11    12   ar
    11    12    13   ar
    12    13    16    1
    13    16    17    1
    14    17    19    1
    15    19    20    1
    16    19    21    2
    17    19    22    2
    18    13    14   ar
    19    14    15   ar
    20     2    23    1
    21    23    30    1
    22    30    31    1
    23    31    32    1
    24    32    33    1
    25    33    34    1
    26    34    35    1
    27    34    36    1
    28    23    24    1
    29    24    25   ar
    30    25    26   ar
    31    26    27   ar
    32    27    28   ar
    33    28    29   ar
    34    15    10   ar
    35    36    31    1
    36    29    24   ar
    37     8     9    1
    38    17    18    1
    39    35    37    1
@<TRIPOS>MOLECULE
*****
 37 39 0 0 0
SMALL
GASTEIGER

@<TRIPOS>ATOM
      1 C           1.8584    1.1960   19.4886 C.3     1  UNL1        0.1152
      2 N           3.2127    0.5683   19.6367 N.am    1  UNL1       -0.2739
      3 C           3.8059    0.3777   21.0012 C.2     1  UNL1        0.2352
      4 O           3.0448    0.8149   22.2176 O.2     1  UNL1       -0.2743
      5 C           5.1601   -0.2499   21.1492 C.3     1  UNL1        0.1703
      6 C           5.3440   -1.4323   22.0539 C.2     1  UNL1        0.2354
      7 O           4.1781   -2.3202   22.3739 O.2     1  UNL1       -0.2742
      8 N           6.6936   -1.7266   22.6385 N.am    1  UNL1       -0.2835
      9 H           7.4588   -1.1438   22.4285 H       1  UNL1        0.1549
     10 C           6.8774   -2.9090   23.5432 C.ar    1  UNL1        0.0503
     11 C           6.5057   -2.8091   24.9929 C.ar    1  UNL1        0.0144
     12 C           6.6895   -3.9914   25.8975 C.ar    1  UNL1       -0.0016
     13 C           7.2452   -5.2736   25.3523 C.ar    1  UNL1       -0.0047
     14 C           7.6169   -5.3735   23.9026 C.ar    1  UNL1       -0.0016
     15 C           7.4331   -4.1912   22.9980 C.ar    1  UNL1        0.0144
     16 C           7.4290   -6.4560   26.2569 C.3     1  UNL1        0.1173
     17 N           6.8256   -6.4506   27.6302 N.3     1  UNL1       -0.1788
     18 H           6.3601   -7.3502   27.7507 H       1  UNL1        0.1488
     19 S           7.6996   -6.2507   28.8327 S.O2    1  UNL1        0.0429
     20 C           8.5737   -6.0508   30.0352 C.3     1  UNL1        0.1957
     21 O           8.8140   -6.9814   28.1442 O.2     1  UNL1       -0.1574
     22 O           6.5852   -5.5199   29.5213 O.2     1  UNL1       -0.1574
     23 C           3.9738    0.1311   18.4203 C.3     1  UNL1        0.1138
     24 C           5.0159    1.0305   17.8243 C.ar    1  UNL1       -0.0029
     25 C           6.0649    0.4631   16.9146 C.ar    1  UNL1       -0.0026
     26 C           7.1069    1.3625   16.3186 C.ar    1  UNL1       -0.0003
     27 C           7.0999    2.8293   16.6323 C.ar    1  UNL1       -0.0000
     28 C           6.0509    3.3967   17.5420 C.ar    1  UNL1       -0.0003
     29 C           5.0089    2.4973   18.1380 C.ar    1  UNL1       -0.0026
     30 C           3.6929   -1.2053   17.7999 C.3     1  UNL1        0.0968
     31 N           4.1115   -2.4619   18.5040 N.3     1  UNL1       -0.2689
     32 C           5.5212   -2.9377   18.6950 C.3     1  UNL1        0.0748
     33 C           5.4750   -4.2332   19.4497 C.3     1  UNL1        0.0480
     34 C           4.0367   -4.5581   19.7251 C.3     1  UNL1        0.1278
     35 O           3.5301   -5.7657   20.4565 O.3     1  UNL1       -0.3830
     36 C           3.1941   -3.4634   19.1406 C.3     1  UNL1        0.1017
     37 H           2.5614   -5.7359   20.4977 H       1  UNL1        0.2104
@<TRIPOS>BOND
     1     1     2    1
     2     2     3   am
     3     3     4    2
     4     3     5    1
     5     5     6    1
     6     6     7    2
     7     6     8   am
     8     8    10    1
     9    10    11   ar
    10    11    12   ar
    11    12    13   ar
    12    13    16    1
    13    16    17    1
    14    17    19    1
    15    19    20    1
    16    19    21    2
    17    19    22    2
    18    13    14   ar
    19    14    15   ar
    20     2    23    1
    21    23    30    1
    22    30    31    1
    23    31    32    1
    24    32    33    1
    25    33    34    1
    26    34    35    1
    27    34    36    1
    28    23    24    1
    29    24    25   ar
    30    25    26   ar
    31    26    27   ar
    32    27    28   ar
    33    28    29   ar
    34    15    10   ar
    35    36    31    1
    36    29    24   ar
    37     8     9    1
    38    17    18    1
    39    35    37    1
