@<TRIPOS>MOLECULE
*****
 39 43 0 0 0
SMALL
GASTEIGER

@<TRIPOS>ATOM
      1 O          -9.3202  -19.5225   22.8403 O.3     1  UNL1       -0.4511
      2 C          -8.0011  -19.5089   22.1263 C.ar    1  UNL1        0.1748
      3 C          -6.7397  -19.2244   22.8864 C.ar    1  UNL1        0.0708
      4 C          -5.4206  -19.2107   22.1723 C.ar    1  UNL1        0.1621
      5 F          -4.1592  -18.9262   22.9324 F       1  UNL1       -0.2026
      6 C          -5.3630  -19.4817   20.6981 C.ar    1  UNL1        0.1550
      7 C          -6.6245  -19.7662   19.9380 C.ar    1  UNL1        0.0553
      8 C          -7.9435  -19.7799   20.6521 C.ar    1  UNL1        0.1759
      9 F          -9.2049  -20.0644   19.8920 F       1  UNL1       -0.2009
     10 S          -4.0440  -19.4681   19.9840 S.O2    1  UNL1        0.0780
     11 O          -3.6151  -20.6824   20.7531 O.2     1  UNL1       -0.1498
     12 O          -4.4729  -18.2537   19.2149 O.2     1  UNL1       -0.1498
     13 N          -2.7249  -19.4544   19.2699 N.pl3   1  UNL1       -0.1835
     14 H          -2.5620  -20.0771   18.5249 H       1  UNL1        0.1767
     15 C          -1.6541  -18.4921   19.6909 C.ar    1  UNL1        0.2360
     16 N          -2.0283  -17.1662   20.2842 N.ar    1  UNL1       -0.2110
     17 C          -0.9574  -16.2038   20.7052 C.ar    1  UNL1        0.1035
     18 C           0.4876  -16.5674   20.5329 C.ar    1  UNL1        0.0414
     19 C           0.8618  -17.8933   19.9395 C.ar    1  UNL1        0.1035
     20 N          -0.2090  -18.8556   19.5185 N.ar    1  UNL1       -0.2110
     21 C         -10.3745  -17.1581   23.0592 C.ar    1  UNL1        0.0354
     22 C         -11.4403  -16.1713   22.6848 C.ar    1  UNL1        0.0144
     23 C         -12.5176  -16.5620   21.7168 C.ar    1  UNL1        0.0579
     24 CL        -13.5833  -15.5751   21.3424 Cl      1  UNL1       -0.0822
     25 C         -12.5291  -17.9396   21.1235 C.ar    1  UNL1        0.0145
     26 C         -11.4633  -18.9264   21.4980 C.ar    1  UNL1        0.0384
     27 C         -10.3860  -18.5357   22.4658 C.ar    1  UNL1        0.1454
     28 N          -5.0320  -14.6593   22.9880 N.pl3   1  UNL1       -0.3400
     29 C          -5.6217  -15.0854   24.2997 C.ar    1  UNL1        0.1674
     30 N          -4.9760  -14.9394   25.6457 N.ar    1  UNL1       -0.0623
     31 O          -5.9160  -15.4960   26.6736 O.2     1  UNL1       -0.3522
     32 C          -7.1427  -15.9860   25.9629 C.ar    1  UNL1        0.1781
     33 C          -8.4018  -16.6305   26.4622 C.ar    1  UNL1        0.0403
     34 C          -9.4790  -17.0212   25.4943 C.ar    1  UNL1        0.0033
     35 C          -9.2972  -16.7674   24.0271 C.ar    1  UNL1        0.0033
     36 C          -8.0381  -16.1229   23.5279 C.ar    1  UNL1        0.0061
     37 C          -6.9608  -15.7322   24.4958 C.ar    1  UNL1        0.0715
     38 H          -4.1412  -14.2410   22.9615 H       1  UNL1        0.1438
     39 H          -5.5357  -14.7980   22.1536 H       1  UNL1        0.1438
@<TRIPOS>BOND
     1    28    29    1
     2    29    30   ar
     3    30    31   ar
     4    31    32   ar
     5    32    33   ar
     6    33    34   ar
     7    34    35   ar
     8    35    21    1
     9    21    22   ar
    10    22    23   ar
    11    23    24    1
    12    23    25   ar
    13    25    26   ar
    14    26    27   ar
    15    27     1    1
    16     1     2    1
    17     2     3   ar
    18     3     4   ar
    19     4     5    1
    20     4     6   ar
    21     6    10    1
    22    10    11    2
    23    10    12    2
    24    10    13    1
    25    13    15    1
    26    15    16   ar
    27    16    17   ar
    28    17    18   ar
    29    18    19   ar
    30    19    20   ar
    31     6     7   ar
    32     7     8   ar
    33     8     9    1
    34    35    36   ar
    35    36    37   ar
    36    37    29   ar
    37    37    32   ar
    38    27    21   ar
    39     8     2   ar
    40    20    15   ar
    41    28    38    1
    42    28    39    1
    43    13    14    1
@<TRIPOS>MOLECULE
*****
 39 43 0 0 0
SMALL
GASTEIGER

@<TRIPOS>ATOM
      1 O          -0.1064    3.9554   23.8291 O.3     1  UNL1       -0.4511
      2 C           0.4639    3.1441   22.7036 C.ar    1  UNL1        0.1748
      3 C           0.8885    3.8188   21.4329 C.ar    1  UNL1        0.0708
      4 C           1.4587    3.0075   20.3074 C.ar    1  UNL1        0.1621
      5 F           1.8833    3.6821   19.0367 F       1  UNL1       -0.2026
      6 C           1.6043    1.5217   20.4526 C.ar    1  UNL1        0.1550
      7 C           1.1797    0.8471   21.7233 C.ar    1  UNL1        0.0553
      8 C           0.6095    1.6583   22.8488 C.ar    1  UNL1        0.1759
      9 F           0.1849    0.9838   24.1195 F       1  UNL1       -0.2009
     10 S           2.1746    0.7104   19.3272 S.O2    1  UNL1        0.0780
     11 O           3.5614    1.0793   19.7639 O.2     1  UNL1       -0.1498
     12 O           0.7878    0.3415   18.8904 O.2     1  UNL1       -0.1498
     13 N           2.7448   -0.1008   18.2017 N.pl3   1  UNL1       -0.1835
     14 H           2.5742    0.1633   17.2688 H       1  UNL1        0.1767
     15 C           3.5750   -1.3146   18.4976 C.ar    1  UNL1        0.2360
     16 N           4.8704   -1.5320   17.7734 N.ar    1  UNL1       -0.2110
     17 C           5.7007   -2.7458   18.0694 C.ar    1  UNL1        0.1035
     18 C           5.2354   -3.7422   19.0896 C.ar    1  UNL1        0.0414
     19 C           3.9399   -3.5247   19.8138 C.ar    1  UNL1        0.1035
     20 N           3.1097   -2.3110   19.5179 N.ar    1  UNL1       -0.2110
     21 C          -2.1723    3.7462   25.3906 C.ar    1  UNL1        0.0354
     22 C          -3.6571    3.8051   25.5955 C.ar    1  UNL1        0.0144
     23 C          -4.5608    4.1319   24.4437 C.ar    1  UNL1        0.0579
     24 CL         -6.0455    4.1908   24.6485 Cl      1  UNL1       -0.0822
     25 C          -3.9797    4.4000   23.0870 C.ar    1  UNL1        0.0145
     26 C          -2.4948    4.3411   22.8822 C.ar    1  UNL1        0.0384
     27 C          -1.5912    4.0142   24.0339 C.ar    1  UNL1        0.1454
     28 N          -0.7816   -0.8835   28.7704 N.pl3   1  UNL1       -0.3400
     29 C          -0.1078    0.4329   29.0215 C.ar    1  UNL1        0.1674
     30 N           0.9198    0.7100   30.0785 N.ar    1  UNL1       -0.0623
     31 O           1.3194    2.1517   29.9699 O.2     1  UNL1       -0.3522
     32 C           0.5387    2.7657   28.8458 C.ar    1  UNL1        0.1781
     33 C           0.5171    4.1548   28.2803 C.ar    1  UNL1        0.0403
     34 C          -0.3866    4.4816   27.1285 C.ar    1  UNL1        0.0033
     35 C          -1.2686    3.4193   26.5424 C.ar    1  UNL1        0.0033
     36 C          -1.2470    2.0302   27.1079 C.ar    1  UNL1        0.0061
     37 C          -0.3433    1.7034   28.2597 C.ar    1  UNL1        0.0715
     38 H          -0.5590   -1.6645   29.3270 H       1  UNL1        0.1438
     39 H          -1.4464   -0.9665   28.0491 H       1  UNL1        0.1438
@<TRIPOS>BOND
     1    28    29    1
     2    29    30   ar
     3    30    31   ar
     4    31    32   ar
     5    32    33   ar
     6    33    34   ar
     7    34    35   ar
     8    35    21    1
     9    21    22   ar
    10    22    23   ar
    11    23    24    1
    12    23    25   ar
    13    25    26   ar
    14    26    27   ar
    15    27     1    1
    16     1     2    1
    17     2     3   ar
    18     3     4   ar
    19     4     5    1
    20     4     6   ar
    21     6    10    1
    22    10    11    2
    23    10    12    2
    24    10    13    1
    25    13    15    1
    26    15    16   ar
    27    16    17   ar
    28    17    18   ar
    29    18    19   ar
    30    19    20   ar
    31     6     7   ar
    32     7     8   ar
    33     8     9    1
    34    35    36   ar
    35    36    37   ar
    36    37    29   ar
    37    37    32   ar
    38    27    21   ar
    39     8     2   ar
    40    20    15   ar
    41    28    38    1
    42    28    39    1
    43    13    14    1
@<TRIPOS>MOLECULE
*****
 39 43 0 0 0
SMALL
GASTEIGER

@<TRIPOS>ATOM
      1 O           4.2007   -0.4637   34.4121 O.3     1  UNL1       -0.4511
      2 C           3.6509   -0.0921   33.0669 C.ar    1  UNL1        0.1748
      3 C           2.8248    1.1503   32.9115 C.ar    1  UNL1        0.0708
      4 C           2.2750    1.5220   31.5662 C.ar    1  UNL1        0.1621
      5 F           1.4489    2.7643   31.4108 F       1  UNL1       -0.2026
      6 C           2.5515    0.6513   30.3764 C.ar    1  UNL1        0.1550
      7 C           3.3776   -0.5910   30.5319 C.ar    1  UNL1        0.0553
      8 C           3.9273   -0.9627   31.8771 C.ar    1  UNL1        0.1759
      9 F           4.7534   -2.2049   32.0326 F       1  UNL1       -0.2009
     10 S           2.0017    1.0230   29.0312 S.O2    1  UNL1        0.0780
     11 O           3.0504    2.0870   28.8966 O.2     1  UNL1       -0.1498
     12 O           0.9530   -0.0410   29.1658 O.2     1  UNL1       -0.1498
     13 N           1.4520    1.3946   27.6860 N.pl3   1  UNL1       -0.1835
     14 H           0.7227    2.0524   27.6168 H       1  UNL1        0.1767
     15 C           2.0133    0.7641   26.4460 C.ar    1  UNL1        0.2360
     16 N           3.1094   -0.2543   26.5529 N.ar    1  UNL1       -0.2110
     17 C           3.6708   -0.8849   25.3129 C.ar    1  UNL1        0.1035
     18 C           3.1360   -0.4970   23.9662 C.ar    1  UNL1        0.0414
     19 C           2.0399    0.5214   23.8595 C.ar    1  UNL1        0.1035
     20 N           1.4785    1.1519   25.0994 N.ar    1  UNL1       -0.2110
     21 C           5.6063    1.1477   35.8878 C.ar    1  UNL1        0.0354
     22 C           6.9392    1.6783   36.3259 C.ar    1  UNL1        0.0144
     23 C           8.1994    1.1279   35.7266 C.ar    1  UNL1        0.0579
     24 CL          9.5322    1.6585   36.1648 Cl      1  UNL1       -0.0822
     25 C           8.1266    0.0471   34.6891 C.ar    1  UNL1        0.0145
     26 C           6.7937   -0.4835   34.2509 C.ar    1  UNL1        0.0384
     27 C           5.5336    0.0668   34.8503 C.ar    1  UNL1        0.1454
     28 N           1.4486   -0.4685   39.7468 N.pl3   1  UNL1       -0.3400
     29 C           1.3477    0.8730   39.0834 C.ar    1  UNL1        0.1674
     30 N           0.2635    1.8860   39.3033 N.ar    1  UNL1       -0.0623
     31 O           0.5590    3.0761   38.4394 O.2     1  UNL1       -0.3522
     32 C           1.8259    2.7987   37.6857 C.ar    1  UNL1        0.1781
     33 C           2.5986    3.6100   36.6884 C.ar    1  UNL1        0.0403
     34 C           3.8587    3.0596   36.0891 C.ar    1  UNL1        0.0033
     35 C           4.3461    1.6980   36.4871 C.ar    1  UNL1        0.0033
     36 C           3.5734    0.8867   37.4844 C.ar    1  UNL1        0.0061
     37 C           2.3133    1.4371   38.0837 C.ar    1  UNL1        0.0715
     38 H           0.7616   -0.7511   40.3929 H       1  UNL1        0.1438
     39 H           2.2018   -1.0665   39.5361 H       1  UNL1        0.1438
@<TRIPOS>BOND
     1    28    29    1
     2    29    30   ar
     3    30    31   ar
     4    31    32   ar
     5    32    33   ar
     6    33    34   ar
     7    34    35   ar
     8    35    21    1
     9    21    22   ar
    10    22    23   ar
    11    23    24    1
    12    23    25   ar
    13    25    26   ar
    14    26    27   ar
    15    27     1    1
    16     1     2    1
    17     2     3   ar
    18     3     4   ar
    19     4     5    1
    20     4     6   ar
    21     6    10    1
    22    10    11    2
    23    10    12    2
    24    10    13    1
    25    13    15    1
    26    15    16   ar
    27    16    17   ar
    28    17    18   ar
    29    18    19   ar
    30    19    20   ar
    31     6     7   ar
    32     7     8   ar
    33     8     9    1
    34    35    36   ar
    35    36    37   ar
    36    37    29   ar
    37    37    32   ar
    38    27    21   ar
    39     8     2   ar
    40    20    15   ar
    41    28    38    1
    42    28    39    1
    43    13    14    1
@<TRIPOS>MOLECULE
*****
 39 43 0 0 0
SMALL
GASTEIGER

@<TRIPOS>ATOM
      1 O           8.8421   -4.0032   22.1386 O.3     1  UNL1       -0.4511
      2 C           7.7852   -3.4079   21.2561 C.ar    1  UNL1        0.1748
      3 C           6.8168   -4.3010   20.5386 C.ar    1  UNL1        0.0708
      4 C           5.7600   -3.7057   19.6561 C.ar    1  UNL1        0.1621
      5 F           4.7916   -4.5987   18.9387 F       1  UNL1       -0.2026
      6 C           5.6716   -2.2174   19.4911 C.ar    1  UNL1        0.1550
      7 C           6.6400   -1.3244   20.2086 C.ar    1  UNL1        0.0553
      8 C           7.6968   -1.9197   21.0910 C.ar    1  UNL1        0.1759
      9 F           8.6652   -1.0267   21.8085 F       1  UNL1       -0.2009
     10 S           4.6148   -1.6222   18.6086 S.O2    1  UNL1        0.0780
     11 O           5.5744   -1.6275   17.4558 O.2     1  UNL1       -0.1498
     12 O           3.6551   -1.6169   19.7614 O.2     1  UNL1       -0.1498
     13 N           3.5579   -1.0269   17.7261 N.pl3   1  UNL1       -0.1835
     14 H           3.2338   -1.5254   16.9414 H       1  UNL1        0.1767
     15 C           2.9950    0.3278   18.0392 C.ar    1  UNL1        0.2360
     16 N           1.5142    0.5062   18.1983 N.ar    1  UNL1       -0.2110
     17 C           0.9513    1.8609   18.5114 C.ar    1  UNL1        0.1035
     18 C           1.8692    3.0372   18.6654 C.ar    1  UNL1        0.0414
     19 C           3.3501    2.8587   18.5063 C.ar    1  UNL1        0.1035
     20 N           3.9130    1.5041   18.1932 N.ar    1  UNL1       -0.2110
     21 C           7.6545   -4.5759   24.3773 C.ar    1  UNL1        0.0354
     22 C           7.2771   -5.5770   25.4286 C.ar    1  UNL1        0.0144
     23 C           7.7101   -7.0068   25.2926 C.ar    1  UNL1        0.0579
     24 CL          7.3327   -8.0079   26.3439 Cl      1  UNL1       -0.0822
     25 C           8.5203   -7.4353   24.1052 C.ar    1  UNL1        0.0145
     26 C           8.8977   -6.4341   23.0539 C.ar    1  UNL1        0.0384
     27 C           8.4647   -5.0044   23.1899 C.ar    1  UNL1        0.1454
     28 N           3.0975   -1.1512   22.8616 N.pl3   1  UNL1       -0.3400
     29 C           4.2457   -0.5481   23.6152 C.ar    1  UNL1        0.1674
     30 N           4.3650    0.8852   24.0410 N.ar    1  UNL1       -0.0623
     31 O           5.6692    1.0468   24.7642 O.2     1  UNL1       -0.3522
     32 C           6.3558   -0.2867   24.7854 C.ar    1  UNL1        0.1781
     33 C           7.6685   -0.7307   25.3595 C.ar    1  UNL1        0.0403
     34 C           8.1013   -2.1604   25.2235 C.ar    1  UNL1        0.0033
     35 C           7.2215   -3.1461   24.5133 C.ar    1  UNL1        0.0033
     36 C           5.9089   -2.7021   23.9391 C.ar    1  UNL1        0.0061
     37 C           5.4760   -1.2724   24.0752 C.ar    1  UNL1        0.0715
     38 H           2.3304   -0.5913   22.6022 H       1  UNL1        0.1438
     39 H           3.1110   -2.1071   22.6263 H       1  UNL1        0.1438
@<TRIPOS>BOND
     1    28    29    1
     2    29    30   ar
     3    30    31   ar
     4    31    32   ar
     5    32    33   ar
     6    33    34   ar
     7    34    35   ar
     8    35    21    1
     9    21    22   ar
    10    22    23   ar
    11    23    24    1
    12    23    25   ar
    13    25    26   ar
    14    26    27   ar
    15    27     1    1
    16     1     2    1
    17     2     3   ar
    18     3     4   ar
    19     4     5    1
    20     4     6   ar
    21     6    10    1
    22    10    11    2
    23    10    12    2
    24    10    13    1
    25    13    15    1
    26    15    16   ar
    27    16    17   ar
    28    17    18   ar
    29    18    19   ar
    30    19    20   ar
    31     6     7   ar
    32     7     8   ar
    33     8     9    1
    34    35    36   ar
    35    36    37   ar
    36    37    29   ar
    37    37    32   ar
    38    27    21   ar
    39     8     2   ar
    40    20    15   ar
    41    28    38    1
    42    28    39    1
    43    13    14    1
@<TRIPOS>MOLECULE
*****
 39 43 0 0 0
SMALL
GASTEIGER

@<TRIPOS>ATOM
      1 O           5.0571   -0.2530   21.8194 O.3     1  UNL1       -0.4511
      2 C           4.5825   -0.2301   23.2422 C.ar    1  UNL1        0.1748
      3 C           3.1763    0.1862   23.5572 C.ar    1  UNL1        0.0708
      4 C           2.7017    0.2091   24.9799 C.ar    1  UNL1        0.1621
      5 F           1.2955    0.6254   25.2949 F       1  UNL1       -0.2026
      6 C           3.6334   -0.1844   26.0877 C.ar    1  UNL1        0.1550
      7 C           5.0396   -0.6007   25.7727 C.ar    1  UNL1        0.0553
      8 C           5.5142   -0.6236   24.3500 C.ar    1  UNL1        0.1759
      9 F           6.9204   -1.0399   24.0350 F       1  UNL1       -0.2009
     10 S           3.1589   -0.1616   27.5105 S.O2    1  UNL1        0.0780
     11 O           3.1392   -1.6614   27.5280 O.2     1  UNL1       -0.1498
     12 O           3.1785    1.3382   27.4930 O.2     1  UNL1       -0.1498
     13 N           2.6843   -0.1388   28.9333 N.pl3   1  UNL1       -0.1835
     14 H           1.7506    0.0978   29.1370 H       1  UNL1        0.1767
     15 C           3.6324   -0.4764   30.0456 C.ar    1  UNL1        0.2360
     16 N           3.1083   -1.0440   31.3314 N.ar    1  UNL1       -0.2110
     17 C           4.0564   -1.3817   32.4437 C.ar    1  UNL1        0.1035
     18 C           5.5285   -1.1517   32.2703 C.ar    1  UNL1        0.0414
     19 C           6.0525   -0.5840   30.9844 C.ar    1  UNL1        0.1035
     20 N           5.1044   -0.2464   29.8722 N.ar    1  UNL1       -0.2110
     21 C           3.8132   -1.6849   20.0439 C.ar    1  UNL1        0.0354
     22 C           3.7020   -2.9440   19.2364 C.ar    1  UNL1        0.0144
     23 C           4.7237   -4.0306   19.3968 C.ar    1  UNL1        0.0579
     24 CL          4.6126   -5.2897   18.5893 Cl      1  UNL1       -0.0822
     25 C           5.8565   -3.8579   20.3647 C.ar    1  UNL1        0.0145
     26 C           5.9677   -2.5986   21.1723 C.ar    1  UNL1        0.0384
     27 C           4.9460   -1.5122   21.0119 C.ar    1  UNL1        0.1454
     28 N           3.4485    3.7823   17.8602 N.pl3   1  UNL1       -0.3400
     29 C           2.2301    3.1576   18.4730 C.ar    1  UNL1        0.1674
     30 N           0.8785    3.7965   18.5951 N.ar    1  UNL1       -0.0623
     31 O          -0.0374    2.8181   19.2687 O.2     1  UNL1       -0.3522
     32 C           0.7481    1.5745   19.5629 C.ar    1  UNL1        0.1781
     33 C           0.3683    0.2783   20.2151 C.ar    1  UNL1        0.0403
     34 C           1.3900   -0.8082   20.3754 C.ar    1  UNL1        0.0033
     35 C           2.7915   -0.5984   19.8836 C.ar    1  UNL1        0.0033
     36 C           3.1712    0.6979   19.2314 C.ar    1  UNL1        0.0061
     37 C           2.1496    1.7844   19.0711 C.ar    1  UNL1        0.0715
     38 H           3.4018    4.6941   17.4920 H       1  UNL1        0.1438
     39 H           4.2948    3.2804   17.8264 H       1  UNL1        0.1438
@<TRIPOS>BOND
     1    28    29    1
     2    29    30   ar
     3    30    31   ar
     4    31    32   ar
     5    32    33   ar
     6    33    34   ar
     7    34    35   ar
     8    35    21    1
     9    21    22   ar
    10    22    23   ar
    11    23    24    1
    12    23    25   ar
    13    25    26   ar
    14    26    27   ar
    15    27     1    1
    16     1     2    1
    17     2     3   ar
    18     3     4   ar
    19     4     5    1
    20     4     6   ar
    21     6    10    1
    22    10    11    2
    23    10    12    2
    24    10    13    1
    25    13    15    1
    26    15    16   ar
    27    16    17   ar
    28    17    18   ar
    29    18    19   ar
    30    19    20   ar
    31     6     7   ar
    32     7     8   ar
    33     8     9    1
    34    35    36   ar
    35    36    37   ar
    36    37    29   ar
    37    37    32   ar
    38    27    21   ar
    39     8     2   ar
    40    20    15   ar
    41    28    38    1
    42    28    39    1
    43    13    14    1
@<TRIPOS>MOLECULE
*****
 39 43 0 0 0
SMALL
GASTEIGER

@<TRIPOS>ATOM
      1 O          -3.7132  -20.0547   21.6820 O.3     1  UNL1       -0.4511
      2 C          -5.1625  -19.7005   21.5276 C.ar    1  UNL1        0.1748
      3 C          -6.1374  -20.0391   22.6163 C.ar    1  UNL1        0.0708
      4 C          -7.5868  -19.6849   22.4619 C.ar    1  UNL1        0.1621
      5 F          -8.5617  -20.0234   23.5504 F       1  UNL1       -0.2026
      6 C          -8.0613  -18.9921   21.2188 C.ar    1  UNL1        0.1550
      7 C          -7.0864  -18.6535   20.1303 C.ar    1  UNL1        0.0553
      8 C          -5.6370  -19.0077   20.2847 C.ar    1  UNL1        0.1759
      9 F          -4.6622  -18.6692   19.1962 F       1  UNL1       -0.2009
     10 S          -9.5107  -18.6379   21.0644 S.O2    1  UNL1        0.0780
     11 O          -9.2009  -17.2144   21.4217 O.2     1  UNL1       -0.1498
     12 O          -9.8205  -20.0614   20.7072 O.2     1  UNL1       -0.1498
     13 N         -10.9601  -18.2837   20.9100 N.pl3   1  UNL1       -0.1835
     14 H         -11.3196  -18.0574   20.0219 H       1  UNL1        0.1767
     15 C         -11.8617  -18.2743   22.1089 C.ar    1  UNL1        0.2360
     16 N         -11.3405  -18.7202   23.4428 N.ar    1  UNL1       -0.2110
     17 C         -12.2421  -18.7108   24.6416 C.ar    1  UNL1        0.1035
     18 C         -13.6649  -18.2555   24.5064 C.ar    1  UNL1        0.0414
     19 C         -14.1861  -17.8096   23.1724 C.ar    1  UNL1        0.1035
     20 N         -13.2845  -17.8190   21.9737 N.ar    1  UNL1       -0.2110
     21 C          -2.5038  -17.7613   21.8497 C.ar    1  UNL1        0.0354
     22 C          -1.4449  -16.8130   21.3707 C.ar    1  UNL1        0.0144
     23 C          -0.5363  -17.2098   20.2449 C.ar    1  UNL1        0.0579
     24 CL          0.5225  -16.2615   19.7659 Cl      1  UNL1       -0.0822
     25 C          -0.6868  -18.5548   19.5982 C.ar    1  UNL1        0.0145
     26 C          -1.7457  -19.5031   20.0773 C.ar    1  UNL1        0.0384
     27 C          -2.6542  -19.1064   21.2030 C.ar    1  UNL1        0.1454
     28 N          -7.4965  -14.7299   22.6707 N.pl3   1  UNL1       -0.3400
     29 C          -6.8149  -15.3493   23.8546 C.ar    1  UNL1        0.1674
     30 N          -7.2829  -15.2787   25.2780 N.ar    1  UNL1       -0.0623
     31 O          -6.3029  -16.0339   26.1261 O.2     1  UNL1       -0.3522
     32 C          -5.2292  -16.5712   25.2269 C.ar    1  UNL1        0.1781
     33 C          -4.0043  -17.3910   25.5050 C.ar    1  UNL1        0.0403
     34 C          -3.0958  -17.7877   24.3793 C.ar    1  UNL1        0.0033
     35 C          -3.4123  -17.3646   22.9754 C.ar    1  UNL1        0.0033
     36 C          -4.6372  -16.5448   22.6973 C.ar    1  UNL1        0.0061
     37 C          -5.5457  -16.1481   23.8230 C.ar    1  UNL1        0.0715
     38 H          -8.3305  -14.2212   22.7933 H       1  UNL1        0.1438
     39 H          -7.1100  -14.8320   21.7710 H       1  UNL1        0.1438
@<TRIPOS>BOND
     1    28    29    1
     2    29    30   ar
     3    30    31   ar
     4    31    32   ar
     5    32    33   ar
     6    33    34   ar
     7    34    35   ar
     8    35    21    1
     9    21    22   ar
    10    22    23   ar
    11    23    24    1
    12    23    25   ar
    13    25    26   ar
    14    26    27   ar
    15    27     1    1
    16     1     2    1
    17     2     3   ar
    18     3     4   ar
    19     4     5    1
    20     4     6   ar
    21     6    10    1
    22    10    11    2
    23    10    12    2
    24    10    13    1
    25    13    15    1
    26    15    16   ar
    27    16    17   ar
    28    17    18   ar
    29    18    19   ar
    30    19    20   ar
    31     6     7   ar
    32     7     8   ar
    33     8     9    1
    34    35    36   ar
    35    36    37   ar
    36    37    29   ar
    37    37    32   ar
    38    27    21   ar
    39     8     2   ar
    40    20    15   ar
    41    28    38    1
    42    28    39    1
    43    13    14    1
@<TRIPOS>MOLECULE
*****
 39 43 0 0 0
SMALL
GASTEIGER

@<TRIPOS>ATOM
      1 O           3.5601    3.4281   34.7966 O.3     1  UNL1       -0.4511
      2 C           3.1638    2.8249   33.4817 C.ar    1  UNL1        0.1748
      3 C           1.7129    2.6864   33.1269 C.ar    1  UNL1        0.0708
      4 C           1.3166    2.0831   31.8119 C.ar    1  UNL1        0.1621
      5 F          -0.1342    1.9446   31.4571 F       1  UNL1       -0.2026
      6 C           2.3713    1.6183   30.8518 C.ar    1  UNL1        0.1550
      7 C           3.8221    1.7568   31.2066 C.ar    1  UNL1        0.0553
      8 C           4.2183    2.3601   32.5215 C.ar    1  UNL1        0.1759
      9 F           5.6691    2.4986   32.8763 F       1  UNL1       -0.2009
     10 S           1.9750    1.0150   29.5369 S.O2    1  UNL1        0.0780
     11 O           1.4918   -0.2148   30.2468 O.2     1  UNL1       -0.1498
     12 O           2.4583    2.2449   28.8270 O.2     1  UNL1       -0.1498
     13 N           1.5788    0.4117   28.2220 N.pl3   1  UNL1       -0.1835
     14 H           1.9311   -0.4690   27.9583 H       1  UNL1        0.1767
     15 C           0.6457    1.1503   27.3087 C.ar    1  UNL1        0.2360
     16 N           0.9552    1.2544   25.8447 N.ar    1  UNL1       -0.2110
     17 C           0.0221    1.9930   24.9315 C.ar    1  UNL1        0.1035
     18 C          -1.2205    2.6274   25.4824 C.ar    1  UNL1        0.0414
     19 C          -1.5300    2.5233   26.9464 C.ar    1  UNL1        0.1035
     20 N          -0.5969    1.7848   27.8596 N.ar    1  UNL1       -0.2110
     21 C           3.6841    1.5544   36.5921 C.ar    1  UNL1        0.0354
     22 C           3.1933    0.9486   37.8735 C.ar    1  UNL1        0.0144
     23 C           2.0874    1.6106   38.6409 C.ar    1  UNL1        0.0579
     24 CL          1.5966    1.0047   39.9223 Cl      1  UNL1       -0.0822
     25 C           1.4725    2.8785   38.1268 C.ar    1  UNL1        0.0145
     26 C           1.9633    3.4843   36.8454 C.ar    1  UNL1        0.0384
     27 C           3.0692    2.8223   36.0780 C.ar    1  UNL1        0.1454
     28 N           4.3954   -2.8511   32.7349 N.pl3   1  UNL1       -0.3400
     29 C           5.5944   -2.0643   33.1745 C.ar    1  UNL1        0.1674
     30 N           7.0077   -2.2847   32.7227 N.ar    1  UNL1       -0.0623
     31 O           7.8774   -1.2756   33.4121 O.2     1  UNL1       -0.3522
     32 C           7.0017   -0.4316   34.2900 C.ar    1  UNL1        0.1781
     33 C           7.3068    0.7178   35.2042 C.ar    1  UNL1        0.0403
     34 C           6.2010    1.3798   35.9715 C.ar    1  UNL1        0.0033
     35 C           4.7900    0.8924   35.8247 C.ar    1  UNL1        0.0033
     36 C           4.4849   -0.2570   34.9106 C.ar    1  UNL1        0.0061
     37 C           5.5907   -0.9190   34.1432 C.ar    1  UNL1        0.0715
     38 H           4.4996   -3.5890   32.0917 H       1  UNL1        0.1438
     39 H           3.5041   -2.6295   33.0897 H       1  UNL1        0.1438
@<TRIPOS>BOND
     1    28    29    1
     2    29    30   ar
     3    30    31   ar
     4    31    32   ar
     5    32    33   ar
     6    33    34   ar
     7    34    35   ar
     8    35    21    1
     9    21    22   ar
    10    22    23   ar
    11    23    24    1
    12    23    25   ar
    13    25    26   ar
    14    26    27   ar
    15    27     1    1
    16     1     2    1
    17     2     3   ar
    18     3     4   ar
    19     4     5    1
    20     4     6   ar
    21     6    10    1
    22    10    11    2
    23    10    12    2
    24    10    13    1
    25    13    15    1
    26    15    16   ar
    27    16    17   ar
    28    17    18   ar
    29    18    19   ar
    30    19    20   ar
    31     6     7   ar
    32     7     8   ar
    33     8     9    1
    34    35    36   ar
    35    36    37   ar
    36    37    29   ar
    37    37    32   ar
    38    27    21   ar
    39     8     2   ar
    40    20    15   ar
    41    28    38    1
    42    28    39    1
    43    13    14    1
@<TRIPOS>MOLECULE
*****
 39 43 0 0 0
SMALL
GASTEIGER

@<TRIPOS>ATOM
      1 O           4.3888   -2.2866   23.5026 O.3     1  UNL1       -0.4511
      2 C           3.4394   -1.3036   22.8842 C.ar    1  UNL1        0.1748
      3 C           2.7716   -0.2670   23.7383 C.ar    1  UNL1        0.0708
      4 C           1.8222    0.7160   23.1200 C.ar    1  UNL1        0.1621
      5 F           1.1543    1.7526   23.9740 F       1  UNL1       -0.2026
      6 C           1.5406    0.6624   21.6476 C.ar    1  UNL1        0.1550
      7 C           2.2085   -0.3743   20.7936 C.ar    1  UNL1        0.0553
      8 C           3.1579   -1.3573   21.4119 C.ar    1  UNL1        0.1759
      9 F           3.8257   -2.3939   20.5579 F       1  UNL1       -0.2009
     10 S           0.5912    1.6454   21.0293 S.O2    1  UNL1        0.0780
     11 O           1.5818    2.7477   21.2607 O.2     1  UNL1       -0.1498
     12 O          -0.3994    0.5430   20.7978 O.2     1  UNL1       -0.1498
     13 N          -0.3582    2.6284   20.4109 N.pl3   1  UNL1       -0.1835
     14 H          -0.1536    3.0252   19.5335 H       1  UNL1        0.1767
     15 C          -1.6194    3.0067   21.1295 C.ar    1  UNL1        0.2360
     16 N          -2.9415    2.9050   20.4284 N.ar    1  UNL1       -0.2110
     17 C          -4.2027    3.2833   21.1470 C.ar    1  UNL1        0.1035
     18 C          -4.1417    3.7635   22.5667 C.ar    1  UNL1        0.0414
     19 C          -2.8195    3.8653   23.2679 C.ar    1  UNL1        0.1035
     20 N          -1.5584    3.4869   22.5493 N.ar    1  UNL1       -0.2110
     21 C           6.8727   -1.5321   23.3966 C.ar    1  UNL1        0.0354
     22 C           8.1130   -1.0453   24.0855 C.ar    1  UNL1        0.0144
     23 C           8.1098   -0.8261   25.5694 C.ar    1  UNL1        0.0579
     24 CL          9.3501   -0.3392   26.2584 Cl      1  UNL1       -0.0822
     25 C           6.8662   -1.0937   26.3644 C.ar    1  UNL1        0.0145
     26 C           5.6259   -1.5806   25.6754 C.ar    1  UNL1        0.0384
     27 C           5.6292   -1.7998   24.1916 C.ar    1  UNL1        0.1454
     28 N           6.4360    1.6324   18.4381 N.pl3   1  UNL1       -0.3400
     29 C           6.6053    0.1450   18.3429 C.ar    1  UNL1        0.1674
     30 N           6.6784   -0.6547   17.0760 N.ar    1  UNL1       -0.0623
     31 O           6.8496   -2.0977   17.4481 O.2     1  UNL1       -0.3522
     32 C           6.8824   -2.1898   18.9449 C.ar    1  UNL1        0.1781
     33 C           7.0301   -3.3567   19.8758 C.ar    1  UNL1        0.0403
     34 C           7.0269   -3.1374   21.3596 C.ar    1  UNL1        0.0033
     35 C           6.8759   -1.7513   21.9126 C.ar    1  UNL1        0.0033
     36 C           6.7281   -0.5844   20.9818 C.ar    1  UNL1        0.0061
     37 C           6.7314   -0.8036   19.4980 C.ar    1  UNL1        0.0715
     38 H           6.3618    2.1728   17.6185 H       1  UNL1        0.1438
     39 H           6.3990    2.0682   19.3201 H       1  UNL1        0.1438
@<TRIPOS>BOND
     1    28    29    1
     2    29    30   ar
     3    30    31   ar
     4    31    32   ar
     5    32    33   ar
     6    33    34   ar
     7    34    35   ar
     8    35    21    1
     9    21    22   ar
    10    22    23   ar
    11    23    24    1
    12    23    25   ar
    13    25    26   ar
    14    26    27   ar
    15    27     1    1
    16     1     2    1
    17     2     3   ar
    18     3     4   ar
    19     4     5    1
    20     4     6   ar
    21     6    10    1
    22    10    11    2
    23    10    12    2
    24    10    13    1
    25    13    15    1
    26    15    16   ar
    27    16    17   ar
    28    17    18   ar
    29    18    19   ar
    30    19    20   ar
    31     6     7   ar
    32     7     8   ar
    33     8     9    1
    34    35    36   ar
    35    36    37   ar
    36    37    29   ar
    37    37    32   ar
    38    27    21   ar
    39     8     2   ar
    40    20    15   ar
    41    28    38    1
    42    28    39    1
    43    13    14    1
@<TRIPOS>MOLECULE
*****
 39 43 0 0 0
SMALL
GASTEIGER

@<TRIPOS>ATOM
      1 O           5.0647   -0.3198   21.8755 O.3     1  UNL1       -0.4511
      2 C           4.7768   -0.3626   23.3470 C.ar    1  UNL1        0.1748
      3 C           5.7451   -1.0252   24.2816 C.ar    1  UNL1        0.0708
      4 C           5.4573   -1.0680   25.7531 C.ar    1  UNL1        0.1621
      5 F           6.4255   -1.7305   26.6878 F       1  UNL1       -0.2026
      6 C           4.2011   -0.4482   26.2900 C.ar    1  UNL1        0.1550
      7 C           3.2329    0.2143   25.3553 C.ar    1  UNL1        0.0553
      8 C           3.5208    0.2571   23.8838 C.ar    1  UNL1        0.1759
      9 F           2.5526    0.9196   22.9492 F       1  UNL1       -0.2009
     10 S           3.9133   -0.4910   27.7615 S.O2    1  UNL1        0.0780
     11 O           4.5476    0.8584   27.9248 O.2     1  UNL1       -0.1498
     12 O           3.2790   -1.8405   27.5982 O.2     1  UNL1       -0.1498
     13 N           3.6254   -0.5338   29.2330 N.pl3   1  UNL1       -0.1835
     14 H           4.1419   -1.1337   29.8183 H       1  UNL1        0.1767
     15 C           2.5507    0.3374   29.8126 C.ar    1  UNL1        0.2360
     16 N           1.3023    0.6111   29.0274 N.ar    1  UNL1       -0.2110
     17 C           0.2275    1.4823   29.6070 C.ar    1  UNL1        0.1035
     18 C           0.4012    2.0798   30.9718 C.ar    1  UNL1        0.0414
     19 C           1.6497    1.8062   31.7571 C.ar    1  UNL1        0.1035
     20 N           2.7244    0.9350   31.1774 N.ar    1  UNL1       -0.2110
     21 C           3.8336   -1.7209   20.0667 C.ar    1  UNL1        0.0354
     22 C           3.7225   -2.9702   19.2441 C.ar    1  UNL1        0.0144
     23 C           4.7314   -4.0682   19.4077 C.ar    1  UNL1        0.0579
     24 CL          4.6203   -5.3175   18.5852 Cl      1  UNL1       -0.0822
     25 C           5.8514   -3.9166   20.3939 C.ar    1  UNL1        0.0145
     26 C           5.9625   -2.6672   21.2165 C.ar    1  UNL1        0.0384
     27 C           4.9536   -1.5693   21.0529 C.ar    1  UNL1        0.1454
     28 N           3.5395    3.7533   17.8898 N.pl3   1  UNL1       -0.3400
     29 C           2.3114    3.1411   18.4956 C.ar    1  UNL1        0.1674
     30 N           0.9663    3.7946   18.6122 N.ar    1  UNL1       -0.0623
     31 O           0.0364    2.8253   19.2798 O.2     1  UNL1       -0.3522
     32 C           0.8068    1.5727   19.5759 C.ar    1  UNL1        0.1781
     33 C           0.4097    0.2797   20.2241 C.ar    1  UNL1        0.0403
     34 C           1.4186   -0.8181   20.3877 C.ar    1  UNL1        0.0033
     35 C           2.8246   -0.6229   19.9030 C.ar    1  UNL1        0.0033
     36 C           3.2218    0.6701   19.2548 C.ar    1  UNL1        0.0061
     37 C           2.2129    1.7679   19.0912 C.ar    1  UNL1        0.0715
     38 H           3.5047    4.6662   17.5228 H       1  UNL1        0.1438
     39 H           4.3804    3.2423   17.8593 H       1  UNL1        0.1438
@<TRIPOS>BOND
     1    28    29    1
     2    29    30   ar
     3    30    31   ar
     4    31    32   ar
     5    32    33   ar
     6    33    34   ar
     7    34    35   ar
     8    35    21    1
     9    21    22   ar
    10    22    23   ar
    11    23    24    1
    12    23    25   ar
    13    25    26   ar
    14    26    27   ar
    15    27     1    1
    16     1     2    1
    17     2     3   ar
    18     3     4   ar
    19     4     5    1
    20     4     6   ar
    21     6    10    1
    22    10    11    2
    23    10    12    2
    24    10    13    1
    25    13    15    1
    26    15    16   ar
    27    16    17   ar
    28    17    18   ar
    29    18    19   ar
    30    19    20   ar
    31     6     7   ar
    32     7     8   ar
    33     8     9    1
    34    35    36   ar
    35    36    37   ar
    36    37    29   ar
    37    37    32   ar
    38    27    21   ar
    39     8     2   ar
    40    20    15   ar
    41    28    38    1
    42    28    39    1
    43    13    14    1
