@<TRIPOS>MOLECULE
*****
 43 46 0 0 0
SMALL
GASTEIGER

@<TRIPOS>ATOM
      1 C           1.5781    2.6863   19.9298 C.3     1  UNL1        0.0777
      2 C           1.7392    1.8522   18.6936 C.3     1  UNL1        0.0413
      3 C           2.6736    0.6788   18.6971 C.3     1  UNL1        0.0984
      4 N           3.4468    0.3395   19.9368 N.am    1  UNL1       -0.2459
      5 C           4.3813   -0.8339   19.9403 C.2     1  UNL1        0.4046
      6 O           5.1545   -1.1732   21.1800 O.2     1  UNL1       -0.2262
      7 C           3.2857    1.1736   21.1730 C.3     1  UNL1        0.0997
      8 C           2.3514    2.3470   21.1695 C.3     1  UNL1        0.0540
      9 N          -1.7719    4.8126   20.0086 N.am    1  UNL1       -0.2485
     10 C          -0.8375    3.6392   20.0120 C.2     1  UNL1        0.3058
     11 O          -1.3844    2.2452   20.1012 O.2     1  UNL1       -0.2524
     12 N           0.6437    3.8598   19.9263 N.am    1  UNL1       -0.2901
     13 H          -1.4131    5.7275   19.9501 H       1  UNL1        0.1583
     14 H           1.0026    4.7746   19.8678 H       1  UNL1        0.1509
     15 C          -5.5475    4.6095   20.8857 C.ar    1  UNL1        0.0803
     16 S          -4.1480    5.0398   21.2118 S.2     1  UNL1       -0.0488
     17 C          -3.2532    4.5921   20.0943 C.ar    1  UNL1        0.1664
     18 N          -4.0996    3.8851   19.0776 N.ar    1  UNL1       -0.2282
     19 C          -5.5176    3.8959   19.5667 C.ar    1  UNL1        0.0701
     20 C          -6.6983    3.2980   18.8607 C.3     1  UNL1        0.0528
     21 C          -6.8919    4.1834   23.0676 C.3     1  UNL1        0.0779
     22 C          -6.7634    4.8506   21.7304 C.2     1  UNL1        0.1807
     23 O          -7.8507    5.7588   21.2378 O.2     1  UNL1       -0.2908
     24 O           4.5423   -1.6680   18.7040 O.3     1  UNL1       -0.4418
     25 C           4.6378   -3.1610   18.8138 C.3     1  UNL1        0.1378
     26 C           3.2237   -3.2150   19.3109 C.3     1  UNL1        0.0437
     27 C           6.0520   -3.1071   18.3167 C.3     1  UNL1        0.0437
     28 C           4.7333   -4.6539   18.9235 C.3     1  UNL1        0.0437
     29 C           2.1902    3.1812   22.4058 C.3     1  UNL1        0.0754
     30 N           1.2506    2.7422   23.4895 N.3     1  UNL1       -0.2726
     31 C           1.7339    1.8284   24.5765 C.3     1  UNL1        0.0721
     32 C           0.7942    1.3895   25.6602 C.3     1  UNL1        0.0174
     33 C          -0.6287    1.8643   25.6569 C.3     1  UNL1        0.0031
     34 C          -1.1119    2.7781   24.5699 C.3     1  UNL1        0.0204
     35 C          -0.1722    3.2170   23.4862 C.3     1  UNL1        0.0724
     36 C          -2.5348    3.2529   24.5666 C.3     1  UNL1        0.0277
     37 C          -2.9965    4.2456   25.5920 C.ar    1  UNL1       -0.0220
     38 C          -4.4104    4.2052   26.0916 C.ar    1  UNL1       -0.0020
     39 C          -4.8721    5.1978   27.1170 C.ar    1  UNL1        0.0293
     40 C          -3.9200    6.2309   27.6427 C.ar    1  UNL1        0.1401
     41 F          -4.3818    7.2236   28.6681 F       1  UNL1       -0.2042
     42 C          -2.5063    6.2713   27.1431 C.ar    1  UNL1        0.0293
     43 C          -2.0446    5.2787   26.1177 C.ar    1  UNL1       -0.0020
@<TRIPOS>BOND
     1    21    22    1
     2    22    23    2
     3    22    15    1
     4    15    16   ar
     5    16    17   ar
     6    17     9    1
     7     9    10   am
     8    10    11    2
     9    10    12   am
    10     1    12    1
    11     1     2    1
    12     2     3    1
    13     3     4    1
    14     4     5   am
    15     5     6    2
    16     5    24    1
    17    24    25    1
    18    25    26    1
    19    25    27    1
    20    25    28    1
    21     4     7    1
    22     7     8    1
    23     8    29    1
    24    29    30    1
    25    30    31    1
    26    31    32    1
    27    32    33    1
    28    33    34    1
    29    34    36    1
    30    36    37    1
    31    37    38   ar
    32    38    39   ar
    33    39    40   ar
    34    40    41    1
    35    40    42   ar
    36    42    43   ar
    37    34    35    1
    38    17    18   ar
    39    18    19   ar
    40    19    20    1
    41    19    15   ar
    42     8     1    1
    43    35    30    1
    44    43    37   ar
    45     9    13    1
    46    12    14    1
@<TRIPOS>MOLECULE
*****
 43 46 0 0 0
SMALL
GASTEIGER

@<TRIPOS>ATOM
      1 C           1.3342    0.4441   27.4385 C.3     1  UNL1        0.0777
      2 C           0.7385    0.0249   28.7497 C.3     1  UNL1        0.0413
      3 C           1.6306   -0.4177   29.8714 C.3     1  UNL1        0.0984
      4 N           3.1184   -0.4411   29.6818 N.am    1  UNL1       -0.2459
      5 C           4.0105   -0.8838   30.8036 C.2     1  UNL1        0.4046
      6 O           5.4983   -0.9072   30.6140 O.2     1  UNL1       -0.2262
      7 C           3.7141   -0.0219   28.3706 C.3     1  UNL1        0.0997
      8 C           2.8220    0.4207   27.2489 C.3     1  UNL1        0.0540
      9 N          -1.3211    2.5391   25.3623 N.am    1  UNL1       -0.2485
     10 C          -0.4290    2.0964   26.4840 C.2     1  UNL1        0.3058
     11 O          -0.4080    2.8634   27.7730 O.2     1  UNL1       -0.2524
     12 N           0.4420    0.8868   26.3167 N.am    1  UNL1       -0.2901
     13 H          -1.3349    2.0357   24.5164 H       1  UNL1        0.1583
     14 H           0.4283    0.3834   25.4708 H       1  UNL1        0.1509
     15 C          -4.0827    5.1770   26.0557 C.ar    1  UNL1        0.0803
     16 S          -3.5942    3.7588   26.0628 S.2     1  UNL1       -0.0488
     17 C          -2.1922    3.7488   25.5295 C.ar    1  UNL1        0.1664
     18 N          -1.8143    5.1608   25.1929 N.ar    1  UNL1       -0.2282
     19 C          -2.9827    6.0435   25.5181 C.ar    1  UNL1        0.0701
     20 C          -3.0408    7.5314   25.3373 C.3     1  UNL1        0.0528
     21 C          -6.4990    5.9500   25.4953 C.3     1  UNL1        0.0779
     22 C          -5.4341    5.6463   26.5071 C.2     1  UNL1        0.1807
     23 O          -5.7204    5.8118   27.9700 O.2     1  UNL1       -0.2908
     24 O           3.4148   -1.3030   32.1148 O.3     1  UNL1       -0.4418
     25 C           4.1169   -0.9706   33.3980 C.3     1  UNL1        0.1378
     26 C           4.5450   -2.4017   33.5346 C.3     1  UNL1        0.0437
     27 C           3.6889    0.4605   33.2614 C.3     1  UNL1        0.0437
     28 C           4.8190   -0.6382   34.6812 C.3     1  UNL1        0.0437
     29 C           3.4176    0.8400   25.9376 C.3     1  UNL1        0.0754
     30 N           3.6139   -0.1699   24.8460 N.3     1  UNL1       -0.2726
     31 C           4.5206   -1.3446   25.0652 C.3     1  UNL1        0.0721
     32 C           4.7169   -2.3545   23.9736 C.3     1  UNL1        0.0174
     33 C           4.0066   -2.1896   22.6627 C.3     1  UNL1        0.0031
     34 C           3.1000   -1.0149   22.4435 C.3     1  UNL1        0.0204
     35 C           2.9036   -0.0050   23.5352 C.3     1  UNL1        0.0724
     36 C           2.3896   -0.8500   21.1327 C.3     1  UNL1        0.0277
     37 C           3.1726   -0.5592   19.8867 C.ar    1  UNL1       -0.0220
     38 C           3.4496    0.8604   19.4891 C.ar    1  UNL1       -0.0020
     39 C           4.2326    1.1511   18.2432 C.ar    1  UNL1        0.0293
     40 C           4.7387    0.0222   17.3948 C.ar    1  UNL1        0.1401
     41 F           5.5217    0.3129   16.1489 F       1  UNL1       -0.2042
     42 C           4.4616   -1.3974   17.7925 C.ar    1  UNL1        0.0293
     43 C           3.6786   -1.6881   19.0384 C.ar    1  UNL1       -0.0020
@<TRIPOS>BOND
     1    21    22    1
     2    22    23    2
     3    22    15    1
     4    15    16   ar
     5    16    17   ar
     6    17     9    1
     7     9    10   am
     8    10    11    2
     9    10    12   am
    10     1    12    1
    11     1     2    1
    12     2     3    1
    13     3     4    1
    14     4     5   am
    15     5     6    2
    16     5    24    1
    17    24    25    1
    18    25    26    1
    19    25    27    1
    20    25    28    1
    21     4     7    1
    22     7     8    1
    23     8    29    1
    24    29    30    1
    25    30    31    1
    26    31    32    1
    27    32    33    1
    28    33    34    1
    29    34    36    1
    30    36    37    1
    31    37    38   ar
    32    38    39   ar
    33    39    40   ar
    34    40    41    1
    35    40    42   ar
    36    42    43   ar
    37    34    35    1
    38    17    18   ar
    39    18    19   ar
    40    19    20    1
    41    19    15   ar
    42     8     1    1
    43    35    30    1
    44    43    37   ar
    45     9    13    1
    46    12    14    1
@<TRIPOS>MOLECULE
*****
 43 46 0 0 0
SMALL
GASTEIGER

@<TRIPOS>ATOM
      1 C           0.6599    3.2581   19.0296 C.3     1  UNL1        0.0777
      2 C          -0.2588    3.3055   17.8449 C.3     1  UNL1        0.0413
      3 C          -1.6504    3.8446   17.9961 C.3     1  UNL1        0.0984
      4 N          -2.1231    4.3365   19.3320 N.am    1  UNL1       -0.2459
      5 C          -3.5147    4.8757   19.4831 C.2     1  UNL1        0.4046
      6 O          -3.9875    5.3675   20.8190 O.2     1  UNL1       -0.2262
      7 C          -1.2044    4.2891   20.5167 C.3     1  UNL1        0.0997
      8 C           0.1872    3.7500   20.3655 C.3     1  UNL1        0.0540
      9 N           3.7370    0.7524   19.0827 N.am    1  UNL1       -0.2485
     10 C           2.3455    1.2916   19.2338 C.2     1  UNL1        0.3058
     11 O           1.2479    0.4034   19.7403 O.2     1  UNL1       -0.2524
     12 N           2.0515    2.7190   18.8785 N.am    1  UNL1       -0.2901
     13 H           4.4574    1.3353   18.7503 H       1  UNL1        0.1583
     14 H           2.7719    3.3019   18.5461 H       1  UNL1        0.1509
     15 C           4.8528   -2.6432   20.5963 C.ar    1  UNL1        0.0803
     16 S           4.8015   -1.1446   20.6362 S.2     1  UNL1       -0.0488
     17 C           4.0310   -0.6750   19.4380 C.ar    1  UNL1        0.1664
     18 N           3.6061   -1.8833   18.6575 N.ar    1  UNL1       -0.2282
     19 C           4.1139   -3.0998   19.3733 C.ar    1  UNL1        0.0701
     20 C           3.9175   -4.5229   18.9419 C.3     1  UNL1        0.0528
     21 C           5.0612   -3.5308   23.0291 C.3     1  UNL1        0.0779
     22 C           5.5249   -3.5295   21.6026 C.2     1  UNL1        0.1807
     23 O           6.6607   -4.4145   21.1824 O.2     1  UNL1       -0.2908
     24 O          -4.4335    4.9230   18.2984 O.3     1  UNL1       -0.4418
     25 C          -5.9147    4.7866   18.4920 C.3     1  UNL1        0.1378
     26 C          -6.0826    6.2563   18.2436 C.3     1  UNL1        0.0437
     27 C          -5.7469    3.3169   18.7405 C.3     1  UNL1        0.0437
     28 C          -7.3959    4.6502   18.6857 C.3     1  UNL1        0.0437
     29 C           1.1060    3.7026   21.5503 C.3     1  UNL1        0.0754
     30 N           0.6900    2.9733   22.7933 N.3     1  UNL1       -0.2726
     31 C           1.1932    1.5839   23.0515 C.3     1  UNL1        0.0721
     32 C           0.7772    0.8546   24.2945 C.3     1  UNL1        0.0174
     33 C          -0.1419    1.5147   25.2793 C.3     1  UNL1        0.0031
     34 C          -0.6450    2.9039   25.0210 C.3     1  UNL1        0.0204
     35 C          -0.2290    3.6333   23.7780 C.3     1  UNL1        0.0724
     36 C          -1.5641    3.5640   26.0058 C.3     1  UNL1        0.0277
     37 C          -2.9966    3.8182   25.6408 C.ar    1  UNL1       -0.0220
     38 C          -3.9068    4.5095   26.6123 C.ar    1  UNL1       -0.0020
     39 C          -5.3393    4.7638   26.2473 C.ar    1  UNL1        0.0293
     40 C          -5.8616    4.3267   24.9107 C.ar    1  UNL1        0.1401
     41 F          -7.2942    4.5810   24.5457 F       1  UNL1       -0.2042
     42 C          -4.9515    3.6355   23.9393 C.ar    1  UNL1        0.0293
     43 C          -3.5190    3.3812   24.3043 C.ar    1  UNL1       -0.0020
@<TRIPOS>BOND
     1    21    22    1
     2    22    23    2
     3    22    15    1
     4    15    16   ar
     5    16    17   ar
     6    17     9    1
     7     9    10   am
     8    10    11    2
     9    10    12   am
    10     1    12    1
    11     1     2    1
    12     2     3    1
    13     3     4    1
    14     4     5   am
    15     5     6    2
    16     5    24    1
    17    24    25    1
    18    25    26    1
    19    25    27    1
    20    25    28    1
    21     4     7    1
    22     7     8    1
    23     8    29    1
    24    29    30    1
    25    30    31    1
    26    31    32    1
    27    32    33    1
    28    33    34    1
    29    34    36    1
    30    36    37    1
    31    37    38   ar
    32    38    39   ar
    33    39    40   ar
    34    40    41    1
    35    40    42   ar
    36    42    43   ar
    37    34    35    1
    38    17    18   ar
    39    18    19   ar
    40    19    20    1
    41    19    15   ar
    42     8     1    1
    43    35    30    1
    44    43    37   ar
    45     9    13    1
    46    12    14    1
@<TRIPOS>MOLECULE
*****
 43 46 0 0 0
SMALL
GASTEIGER

@<TRIPOS>ATOM
      1 C           5.4547   -2.8402   22.8362 C.3     1  UNL1        0.0777
      2 C           4.4525   -2.4674   21.7843 C.3     1  UNL1        0.0413
      3 C           4.8976   -2.2472   20.3689 C.3     1  UNL1        0.0984
      4 N           6.3448   -2.3997   20.0054 N.am    1  UNL1       -0.2459
      5 C           6.7899   -2.1794   18.5900 C.2     1  UNL1        0.4046
      6 O           8.2372   -2.3319   18.2265 O.2     1  UNL1       -0.2262
      7 C           7.3471   -2.7725   21.0573 C.3     1  UNL1        0.0997
      8 C           6.9020   -2.9927   22.4727 C.3     1  UNL1        0.0540
      9 N           4.2822   -2.1059   26.5559 N.am    1  UNL1       -0.2485
     10 C           4.7272   -1.8856   25.1405 C.2     1  UNL1        0.3058
     11 O           4.8898   -0.4905   24.6138 O.2     1  UNL1       -0.2524
     12 N           5.0097   -3.0605   24.2517 N.am    1  UNL1       -0.2901
     13 H           4.1755   -3.0215   26.9015 H       1  UNL1        0.1583
     14 H           4.9029   -3.9761   24.5973 H       1  UNL1        0.1509
     15 C           2.8535    0.6511   28.8848 C.ar    1  UNL1        0.0803
     16 S           2.6825   -0.6059   28.0843 S.2     1  UNL1       -0.0488
     17 C           3.9997   -0.9310   27.4447 C.ar    1  UNL1        0.1664
     18 N           4.9849    0.1250   27.8500 N.ar    1  UNL1       -0.2282
     19 C           4.2766    1.1027   28.7400 C.ar    1  UNL1        0.0701
     20 C           4.8845    2.3187   29.3740 C.3     1  UNL1        0.0528
     21 C           1.0165    2.4763   29.0943 C.3     1  UNL1        0.0779
     22 C           1.7886    1.3360   29.6890 C.2     1  UNL1        0.1807
     23 O           1.4957    0.8807   31.0878 O.2     1  UNL1       -0.2908
     24 O           5.7877   -1.8066   17.5380 O.3     1  UNL1       -0.4418
     25 C           5.2595   -0.4044   17.4688 C.3     1  UNL1        0.1378
     26 C           6.6333    0.1272   17.7514 C.3     1  UNL1        0.0437
     27 C           3.8856   -0.9359   17.1861 C.3     1  UNL1        0.0437
     28 C           4.7312    0.9978   17.3995 C.3     1  UNL1        0.0437
     29 C           7.9042   -3.3655   23.5247 C.3     1  UNL1        0.0754
     30 N           8.0486   -4.7969   23.9493 N.3     1  UNL1       -0.2726
     31 C           8.6400   -5.8028   23.0066 C.3     1  UNL1        0.0721
     32 C           8.7844   -7.2342   23.4311 C.3     1  UNL1        0.0174
     33 C           8.3375   -7.6597   24.7984 C.3     1  UNL1        0.0031
     34 C           7.7461   -6.6539   25.7409 C.3     1  UNL1        0.0204
     35 C           7.6017   -5.2225   25.3164 C.3     1  UNL1        0.0724
     36 C           7.2991   -7.0794   27.1082 C.3     1  UNL1        0.0277
     37 C           7.6411   -6.2407   28.3038 C.ar    1  UNL1       -0.0220
     38 C           6.5838   -5.4022   28.9590 C.ar    1  UNL1       -0.0020
     39 C           6.9258   -4.5635   30.1547 C.ar    1  UNL1        0.0293
     40 C           8.3251   -4.5633   30.6952 C.ar    1  UNL1        0.1401
     41 F           8.6670   -3.7246   31.8908 F       1  UNL1       -0.2042
     42 C           9.3823   -5.4017   30.0400 C.ar    1  UNL1        0.0293
     43 C           9.0403   -6.2404   28.8444 C.ar    1  UNL1       -0.0020
@<TRIPOS>BOND
     1    21    22    1
     2    22    23    2
     3    22    15    1
     4    15    16   ar
     5    16    17   ar
     6    17     9    1
     7     9    10   am
     8    10    11    2
     9    10    12   am
    10     1    12    1
    11     1     2    1
    12     2     3    1
    13     3     4    1
    14     4     5   am
    15     5     6    2
    16     5    24    1
    17    24    25    1
    18    25    26    1
    19    25    27    1
    20    25    28    1
    21     4     7    1
    22     7     8    1
    23     8    29    1
    24    29    30    1
    25    30    31    1
    26    31    32    1
    27    32    33    1
    28    33    34    1
    29    34    36    1
    30    36    37    1
    31    37    38   ar
    32    38    39   ar
    33    39    40   ar
    34    40    41    1
    35    40    42   ar
    36    42    43   ar
    37    34    35    1
    38    17    18   ar
    39    18    19   ar
    40    19    20    1
    41    19    15   ar
    42     8     1    1
    43    35    30    1
    44    43    37   ar
    45     9    13    1
    46    12    14    1
@<TRIPOS>MOLECULE
*****
 43 46 0 0 0
SMALL
GASTEIGER

@<TRIPOS>ATOM
      1 C           2.8054    1.4938   20.8817 C.3     1  UNL1        0.0777
      2 C           4.2877    1.2774   20.8055 C.3     1  UNL1        0.0413
      3 C           4.8805    0.5523   19.6339 C.3     1  UNL1        0.0984
      4 N           3.9909    0.0435   18.5385 N.am    1  UNL1       -0.2459
      5 C           4.5838   -0.6817   17.3668 C.2     1  UNL1        0.4046
      6 O           3.6942   -1.1905   16.2715 O.2     1  UNL1       -0.2262
      7 C           2.5086    0.2599   18.6147 C.3     1  UNL1        0.0997
      8 C           1.9159    0.9851   19.7863 C.3     1  UNL1        0.0540
      9 N           1.5133    2.2593   24.5552 N.am    1  UNL1       -0.2485
     10 C           2.1061    1.5341   23.3836 C.2     1  UNL1        0.3058
     11 O           2.5924    0.1240   23.5422 O.2     1  UNL1       -0.2524
     12 N           2.2126    2.2191   22.0534 N.am    1  UNL1       -0.2901
     13 H           1.1941    3.1848   24.4511 H       1  UNL1        0.1583
     14 H           1.8934    3.1446   21.9493 H       1  UNL1        0.1509
     15 C           0.5202    0.7163   27.9755 C.ar    1  UNL1        0.0803
     16 S           0.1749    1.4888   26.7370 S.2     1  UNL1       -0.0488
     17 C           1.4068    1.5743   25.8855 C.ar    1  UNL1        0.1664
     18 N           2.5135    0.8547   26.5978 N.ar    1  UNL1       -0.2282
     19 C           1.9656    0.3244   27.8895 C.ar    1  UNL1        0.0701
     20 C           2.7290   -0.4601   28.9151 C.3     1  UNL1        0.0528
     21 C          -1.5350   -0.5831   28.8906 C.3     1  UNL1        0.0779
     22 C          -0.4155    0.3925   29.1023 C.2     1  UNL1        0.1807
     23 O          -0.2318    1.0444   30.4406 O.2     1  UNL1       -0.2908
     24 O           6.0661   -0.8981   17.2906 O.3     1  UNL1       -0.4418
     25 C           6.7516   -1.7599   18.3092 C.3     1  UNL1        0.1378
     26 C           5.7153   -2.8250   18.1056 C.3     1  UNL1        0.0437
     27 C           7.7880   -0.6949   18.5128 C.3     1  UNL1        0.0437
     28 C           7.4371   -2.6217   19.3277 C.3     1  UNL1        0.0437
     29 C           0.4335    1.2015   19.8626 C.3     1  UNL1        0.0754
     30 N          -0.1341    2.5776   19.6773 N.3     1  UNL1       -0.2726
     31 C           0.5923    3.5807   18.8310 C.3     1  UNL1        0.0721
     32 C           0.0248    4.9568   18.6457 C.3     1  UNL1        0.0174
     33 C          -1.2691    5.3297   19.3067 C.3     1  UNL1        0.0031
     34 C          -1.9954    4.3266   20.1529 C.3     1  UNL1        0.0204
     35 C          -1.4279    2.9505   20.3382 C.3     1  UNL1        0.0724
     36 C          -3.2893    4.6995   20.8139 C.3     1  UNL1        0.0277
     37 C          -3.5008    4.4032   22.2690 C.ar    1  UNL1       -0.0220
     38 C          -4.6511    3.5420   22.6996 C.ar    1  UNL1       -0.0020
     39 C          -4.8626    3.2456   24.1547 C.ar    1  UNL1        0.0293
     40 C          -3.9239    3.8105   25.1793 C.ar    1  UNL1        0.1401
     41 F          -4.1354    3.5141   26.6345 F       1  UNL1       -0.2042
     42 C          -2.7737    4.6716   24.7488 C.ar    1  UNL1        0.0293
     43 C          -2.5622    4.9680   23.2936 C.ar    1  UNL1       -0.0020
@<TRIPOS>BOND
     1    21    22    1
     2    22    23    2
     3    22    15    1
     4    15    16   ar
     5    16    17   ar
     6    17     9    1
     7     9    10   am
     8    10    11    2
     9    10    12   am
    10     1    12    1
    11     1     2    1
    12     2     3    1
    13     3     4    1
    14     4     5   am
    15     5     6    2
    16     5    24    1
    17    24    25    1
    18    25    26    1
    19    25    27    1
    20    25    28    1
    21     4     7    1
    22     7     8    1
    23     8    29    1
    24    29    30    1
    25    30    31    1
    26    31    32    1
    27    32    33    1
    28    33    34    1
    29    34    36    1
    30    36    37    1
    31    37    38   ar
    32    38    39   ar
    33    39    40   ar
    34    40    41    1
    35    40    42   ar
    36    42    43   ar
    37    34    35    1
    38    17    18   ar
    39    18    19   ar
    40    19    20    1
    41    19    15   ar
    42     8     1    1
    43    35    30    1
    44    43    37   ar
    45     9    13    1
    46    12    14    1
@<TRIPOS>MOLECULE
*****
 43 46 0 0 0
SMALL
GASTEIGER

@<TRIPOS>ATOM
      1 C           0.5682    2.5769   20.5234 C.3     1  UNL1        0.0777
      2 C           0.5181    1.6394   19.3536 C.3     1  UNL1        0.0413
      3 C           1.2835    0.3500   19.3925 C.3     1  UNL1        0.0984
      4 N           2.0990   -0.0019   20.6013 N.am    1  UNL1       -0.2459
      5 C           2.8644   -1.2914   20.6402 C.2     1  UNL1        0.4046
      6 O           3.6799   -1.6433   21.8490 O.2     1  UNL1       -0.2262
      7 C           2.1491    0.9356   21.7712 C.3     1  UNL1        0.0997
      8 C           1.3837    2.2250   21.7322 C.3     1  UNL1        0.0540
      9 N          -2.4462    5.1543   20.6668 N.am    1  UNL1       -0.2485
     10 C          -1.6808    3.8649   20.7057 C.2     1  UNL1        0.3058
     11 O          -2.3990    2.5739   20.9658 O.2     1  UNL1       -0.2524
     12 N          -0.1972    3.8664   20.4845 N.am    1  UNL1       -0.2901
     13 H          -1.9748    6.0016   20.4961 H       1  UNL1        0.1583
     14 H           0.2742    4.7137   20.3138 H       1  UNL1        0.1509
     15 C          -6.3110    5.5005   20.5725 C.ar    1  UNL1        0.0803
     16 S          -4.9607    5.7183   19.9567 S.2     1  UNL1       -0.0488
     17 C          -3.9298    5.1528   20.8880 C.ar    1  UNL1        0.1664
     18 N          -4.6430    4.5855   22.0794 N.ar    1  UNL1       -0.2282
     19 C          -6.1147    4.8004   21.8844 C.ar    1  UNL1        0.0701
     20 C          -7.1995    4.3876   22.8346 C.3     1  UNL1        0.0528
     21 C          -8.0560    5.3599   18.6528 C.3     1  UNL1        0.0779
     22 C          -7.6267    5.9108   19.9803 C.2     1  UNL1        0.1807
     23 O          -8.5129    6.8720   20.7155 O.2     1  UNL1       -0.2908
     24 O           2.8143   -2.2289   19.4704 O.3     1  UNL1       -0.4418
     25 C           4.0868   -2.7610   18.8806 C.3     1  UNL1        0.1378
     26 C           4.4333   -1.3870   18.3885 C.3     1  UNL1        0.0437
     27 C           3.7403   -4.1349   19.3728 C.3     1  UNL1        0.0437
     28 C           5.3592   -3.2931   18.2909 C.3     1  UNL1        0.0437
     29 C           1.4337    3.1626   22.9021 C.3     1  UNL1        0.0754
     30 N           0.6919    2.8294   24.1625 N.3     1  UNL1       -0.2726
     31 C           0.6125    1.4070   24.6323 C.3     1  UNL1        0.0721
     32 C          -0.1293    1.0738   25.8927 C.3     1  UNL1        0.0174
     33 C          -0.7917    2.1630   26.6834 C.3     1  UNL1        0.0031
     34 C          -0.7122    3.5852   26.2136 C.3     1  UNL1        0.0204
     35 C           0.0296    3.9185   24.9531 C.3     1  UNL1        0.0724
     36 C          -1.3746    4.6744   27.0042 C.3     1  UNL1        0.0277
     37 C          -2.8368    4.9530   26.8184 C.ar    1  UNL1       -0.0220
     38 C          -3.4593    6.1550   27.4647 C.ar    1  UNL1       -0.0020
     39 C          -4.9214    6.4336   27.2788 C.ar    1  UNL1        0.0293
     40 C          -5.7610    5.5102   26.4467 C.ar    1  UNL1        0.1401
     41 F          -7.2232    5.7888   26.2608 F       1  UNL1       -0.2042
     42 C          -5.1385    4.3082   25.8004 C.ar    1  UNL1        0.0293
     43 C          -3.6764    4.0296   25.9863 C.ar    1  UNL1       -0.0020
@<TRIPOS>BOND
     1    21    22    1
     2    22    23    2
     3    22    15    1
     4    15    16   ar
     5    16    17   ar
     6    17     9    1
     7     9    10   am
     8    10    11    2
     9    10    12   am
    10     1    12    1
    11     1     2    1
    12     2     3    1
    13     3     4    1
    14     4     5   am
    15     5     6    2
    16     5    24    1
    17    24    25    1
    18    25    26    1
    19    25    27    1
    20    25    28    1
    21     4     7    1
    22     7     8    1
    23     8    29    1
    24    29    30    1
    25    30    31    1
    26    31    32    1
    27    32    33    1
    28    33    34    1
    29    34    36    1
    30    36    37    1
    31    37    38   ar
    32    38    39   ar
    33    39    40   ar
    34    40    41    1
    35    40    42   ar
    36    42    43   ar
    37    34    35    1
    38    17    18   ar
    39    18    19   ar
    40    19    20    1
    41    19    15   ar
    42     8     1    1
    43    35    30    1
    44    43    37   ar
    45     9    13    1
    46    12    14    1
@<TRIPOS>MOLECULE
*****
 43 46 0 0 0
SMALL
GASTEIGER

@<TRIPOS>ATOM
      1 C           0.4970    2.5314   20.0518 C.3     1  UNL1        0.0777
      2 C           0.5378    1.5203   18.9446 C.3     1  UNL1        0.0413
      3 C           1.2864    0.2339   19.1308 C.3     1  UNL1        0.0984
      4 N           1.9942   -0.0414   20.4244 N.am    1  UNL1       -0.2459
      5 C           2.7429   -1.3279   20.6106 C.2     1  UNL1        0.4046
      6 O           3.4506   -1.6032   21.9041 O.2     1  UNL1       -0.2262
      7 C           1.9534    0.9696   21.5316 C.3     1  UNL1        0.0997
      8 C           1.2048    2.2560   21.3453 C.3     1  UNL1        0.0540
      9 N          -2.4887    5.1389   19.8615 N.am    1  UNL1       -0.2485
     10 C          -1.7401    3.8525   20.0477 C.2     1  UNL1        0.3058
     11 O          -2.4800    2.6007   20.4160 O.2     1  UNL1       -0.2524
     12 N          -0.2516    3.8179   19.8656 N.am    1  UNL1       -0.2901
     13 H          -2.0031    5.9605   19.6197 H       1  UNL1        0.1583
     14 H           0.2340    4.6394   19.6238 H       1  UNL1        0.1509
     15 C          -6.1755    5.2973   21.0648 C.ar    1  UNL1        0.0803
     16 S          -4.7028    5.3078   21.3495 S.2     1  UNL1       -0.0488
     17 C          -3.9772    5.1736   20.0436 C.ar    1  UNL1        0.1664
     18 N          -5.0015    5.0800   18.9518 N.ar    1  UNL1       -0.2282
     19 C          -6.3601    5.1565   19.5829 C.ar    1  UNL1        0.0701
     20 C          -7.6728    5.1018   18.8591 C.3     1  UNL1        0.0528
     21 C          -7.4112    4.3638   23.1508 C.3     1  UNL1        0.0779
     22 C          -7.2712    5.4081   22.0832 C.2     1  UNL1        0.1807
     23 O          -8.2269    6.5631   22.0340 O.2     1  UNL1       -0.2908
     24 O           2.7837   -2.3389   19.5033 O.3     1  UNL1       -0.4418
     25 C           4.0988   -2.8946   19.0431 C.3     1  UNL1        0.1378
     26 C           4.5113   -1.5306   18.5750 C.3     1  UNL1        0.0437
     27 C           3.6863   -4.2586   19.5113 C.3     1  UNL1        0.0437
     28 C           5.4139   -3.4502   18.5830 C.3     1  UNL1        0.0437
     29 C           1.1640    3.2672   22.4526 C.3     1  UNL1        0.0754
     30 N           0.1609    3.1275   23.5592 N.3     1  UNL1       -0.2726
     31 C          -1.1766    3.7974   23.4479 C.3     1  UNL1        0.0721
     32 C          -2.1797    3.6578   24.5544 C.3     1  UNL1        0.0174
     33 C          -1.8452    2.8482   25.7722 C.3     1  UNL1        0.0031
     34 C          -0.5077    2.1784   25.8834 C.3     1  UNL1        0.0204
     35 C           0.4954    2.3181   24.7769 C.3     1  UNL1        0.0724
     36 C          -0.1732    1.3689   27.1011 C.3     1  UNL1        0.0277
     37 C           0.1837    2.0578   28.3849 C.ar    1  UNL1       -0.0220
     38 C           0.1272    1.3048   29.6810 C.ar    1  UNL1       -0.0020
     39 C           0.4841    1.9937   30.9648 C.ar    1  UNL1        0.0293
     40 C           0.8976    3.4356   30.9524 C.ar    1  UNL1        0.1401
     41 F           1.2546    4.1245   32.2361 F       1  UNL1       -0.2042
     42 C           0.9541    4.1885   29.6563 C.ar    1  UNL1        0.0293
     43 C           0.5972    3.4996   28.3725 C.ar    1  UNL1       -0.0020
@<TRIPOS>BOND
     1    21    22    1
     2    22    23    2
     3    22    15    1
     4    15    16   ar
     5    16    17   ar
     6    17     9    1
     7     9    10   am
     8    10    11    2
     9    10    12   am
    10     1    12    1
    11     1     2    1
    12     2     3    1
    13     3     4    1
    14     4     5   am
    15     5     6    2
    16     5    24    1
    17    24    25    1
    18    25    26    1
    19    25    27    1
    20    25    28    1
    21     4     7    1
    22     7     8    1
    23     8    29    1
    24    29    30    1
    25    30    31    1
    26    31    32    1
    27    32    33    1
    28    33    34    1
    29    34    36    1
    30    36    37    1
    31    37    38   ar
    32    38    39   ar
    33    39    40   ar
    34    40    41    1
    35    40    42   ar
    36    42    43   ar
    37    34    35    1
    38    17    18   ar
    39    18    19   ar
    40    19    20    1
    41    19    15   ar
    42     8     1    1
    43    35    30    1
    44    43    37   ar
    45     9    13    1
    46    12    14    1
@<TRIPOS>MOLECULE
*****
 43 46 0 0 0
SMALL
GASTEIGER

@<TRIPOS>ATOM
      1 C           0.8854    3.0314   24.2732 C.3     1  UNL1        0.0777
      2 C          -0.0585    2.6773   25.3839 C.3     1  UNL1        0.0413
      3 C          -1.5338    2.8836   25.2087 C.3     1  UNL1        0.0984
      4 N          -2.0653    3.4439   23.9228 N.am    1  UNL1       -0.2459
      5 C          -3.5408    3.6501   23.7477 C.2     1  UNL1        0.4046
      6 O          -4.0723    4.2104   22.4618 O.2     1  UNL1       -0.2262
      7 C          -1.1215    3.7980   22.8121 C.3     1  UNL1        0.0997
      8 C           0.3539    3.5917   22.9873 C.3     1  UNL1        0.0540
      9 N           4.4337    1.2594   24.4125 N.am    1  UNL1       -0.2485
     10 C           2.9583    1.4656   24.2374 C.2     1  UNL1        0.3058
     11 O           2.0804    0.3123   23.8512 O.2     1  UNL1       -0.2524
     12 N           2.3608    2.8252   24.4484 N.am    1  UNL1       -0.2901
     13 H           5.0099    2.0163   24.6660 H       1  UNL1        0.1583
     14 H           2.9370    3.5822   24.7018 H       1  UNL1        0.1509
     15 C           5.9630   -2.0721   23.1366 C.ar    1  UNL1        0.0803
     16 S           5.4023   -0.7048   22.8799 S.2     1  UNL1       -0.0488
     17 C           5.0312   -0.1002   24.2015 C.ar    1  UNL1        0.1664
     18 N           5.3625   -1.0940   25.2751 N.ar    1  UNL1       -0.2282
     19 C           5.9384   -2.3127   24.6170 C.ar    1  UNL1        0.0701
     20 C           6.4073   -3.5540   25.3165 C.3     1  UNL1        0.0528
     21 C           7.5428   -2.6105   21.1456 C.3     1  UNL1        0.0779
     22 C           6.4609   -3.0306   22.0958 C.2     1  UNL1        0.1807
     23 O           5.8768   -4.4092   22.0051 O.2     1  UNL1       -0.2908
     24 O          -4.4846    3.2960   24.8584 O.3     1  UNL1       -0.4418
     25 C          -5.2276    4.3779   25.5848 C.3     1  UNL1        0.1378
     26 C          -6.2470    4.4162   24.4851 C.3     1  UNL1        0.0437
     27 C          -4.2082    4.3395   26.6845 C.3     1  UNL1        0.0437
     28 C          -5.9705    5.4597   26.3112 C.3     1  UNL1        0.0437
     29 C           1.2978    3.9458   21.8766 C.3     1  UNL1        0.0754
     30 N           1.5417    2.9733   20.7610 N.3     1  UNL1       -0.2726
     31 C           0.4634    2.7006   19.7545 C.3     1  UNL1        0.0721
     32 C           0.7073    1.7281   18.6389 C.3     1  UNL1        0.0174
     33 C           2.0295    1.0281   18.5297 C.3     1  UNL1        0.0031
     34 C           3.1078    1.3008   19.5362 C.3     1  UNL1        0.0204
     35 C           2.8639    2.2733   20.6518 C.3     1  UNL1        0.0724
     36 C           4.4300    0.6008   19.4270 C.3     1  UNL1        0.0277
     37 C           4.4776   -0.8801   19.1937 C.ar    1  UNL1       -0.0220
     38 C           3.4903   -1.7792   19.8771 C.ar    1  UNL1       -0.0020
     39 C           3.5379   -3.2602   19.6437 C.ar    1  UNL1        0.0293
     40 C           4.5728   -3.8421   18.7269 C.ar    1  UNL1        0.1401
     41 F           4.6204   -5.3231   18.4936 F       1  UNL1       -0.2042
     42 C           5.5600   -2.9430   18.0435 C.ar    1  UNL1        0.0293
     43 C           5.5124   -1.4621   18.2769 C.ar    1  UNL1       -0.0020
@<TRIPOS>BOND
     1    21    22    1
     2    22    23    2
     3    22    15    1
     4    15    16   ar
     5    16    17   ar
     6    17     9    1
     7     9    10   am
     8    10    11    2
     9    10    12   am
    10     1    12    1
    11     1     2    1
    12     2     3    1
    13     3     4    1
    14     4     5   am
    15     5     6    2
    16     5    24    1
    17    24    25    1
    18    25    26    1
    19    25    27    1
    20    25    28    1
    21     4     7    1
    22     7     8    1
    23     8    29    1
    24    29    30    1
    25    30    31    1
    26    31    32    1
    27    32    33    1
    28    33    34    1
    29    34    36    1
    30    36    37    1
    31    37    38   ar
    32    38    39   ar
    33    39    40   ar
    34    40    41    1
    35    40    42   ar
    36    42    43   ar
    37    34    35    1
    38    17    18   ar
    39    18    19   ar
    40    19    20    1
    41    19    15   ar
    42     8     1    1
    43    35    30    1
    44    43    37   ar
    45     9    13    1
    46    12    14    1
@<TRIPOS>MOLECULE
*****
 43 46 0 0 0
SMALL
GASTEIGER

@<TRIPOS>ATOM
      1 C           0.6599    0.5096   28.1128 C.3     1  UNL1        0.0777
      2 C          -0.7731    0.5415   28.5546 C.3     1  UNL1        0.0413
      3 C          -1.7148    1.5541   27.9734 C.3     1  UNL1        0.0984
      4 N          -1.2233    2.5348   26.9503 N.am    1  UNL1       -0.2459
      5 C          -2.1650    3.5475   26.3690 C.2     1  UNL1        0.4046
      6 O          -1.6736    4.5282   25.3460 O.2     1  UNL1       -0.2262
      7 C           0.2098    2.5029   26.5085 C.3     1  UNL1        0.0997
      8 C           1.1514    1.4903   27.0898 C.3     1  UNL1        0.0540
      9 N           3.3235   -1.1898   30.5144 N.am    1  UNL1       -0.2485
     10 C           2.3819   -0.1773   29.9331 C.2     1  UNL1        0.3058
     11 O           2.2204    1.1612   30.5908 O.2     1  UNL1       -0.2524
     12 N           1.6017   -0.5031   28.6941 N.am    1  UNL1       -0.2901
     13 H           3.4295   -2.0683   30.0827 H       1  UNL1        0.1583
     14 H           1.7076   -1.3815   28.2624 H       1  UNL1        0.1509
     15 C           5.8903   -0.1601   33.2378 C.ar    1  UNL1        0.0803
     16 S           5.5103   -0.3448   31.7986 S.2     1  UNL1       -0.0488
     17 C           4.1038   -0.8640   31.7534 C.ar    1  UNL1        0.1664
     18 N           3.6145   -1.0003   33.1648 N.ar    1  UNL1       -0.2282
     19 C           4.7186   -0.5652   34.0822 C.ar    1  UNL1        0.0701
     20 C           4.6610   -0.5398   35.5809 C.3     1  UNL1        0.0528
     21 C           7.4886    1.8151   33.7798 C.3     1  UNL1        0.0779
     22 C           7.2102    0.3416   33.7439 C.2     1  UNL1        0.1807
     23 O           8.2516   -0.6301   34.2139 O.2     1  UNL1       -0.2908
     24 O          -3.5981    3.5793   26.8108 O.3     1  UNL1       -0.4418
     25 C          -4.6137    4.3372   26.0082 C.3     1  UNL1        0.1378
     26 C          -4.6337    3.2342   24.9919 C.3     1  UNL1        0.0437
     27 C          -4.5937    5.4402   27.0245 C.3     1  UNL1        0.0437
     28 C          -5.6293    5.0951   25.2056 C.3     1  UNL1        0.0437
     29 C           2.5846    1.4584   26.6480 C.3     1  UNL1        0.0754
     30 N           3.0450    0.4182   25.6702 N.3     1  UNL1       -0.2726
     31 C           3.9275   -0.7044   26.1295 C.3     1  UNL1        0.0721
     32 C           4.3879   -1.7446   25.1517 C.3     1  UNL1        0.0174
     33 C           3.9658   -1.6622   23.7147 C.3     1  UNL1        0.0031
     34 C           3.0832   -0.5396   23.2555 C.3     1  UNL1        0.0204
     35 C           2.6228    0.5006   24.2332 C.3     1  UNL1        0.0724
     36 C           2.6611   -0.4572   21.8184 C.3     1  UNL1        0.0277
     37 C           3.5330   -1.0400   20.7460 C.ar    1  UNL1       -0.0220
     38 C           3.1619   -2.3439   20.1039 C.ar    1  UNL1       -0.0020
     39 C           4.0338   -2.9267   19.0315 C.ar    1  UNL1        0.0293
     40 C           5.2768   -2.2056   18.6011 C.ar    1  UNL1        0.1401
     41 F           6.1487   -2.7884   17.5287 F       1  UNL1       -0.2042
     42 C           5.6478   -0.9018   19.2432 C.ar    1  UNL1        0.0293
     43 C           4.7759   -0.3190   20.3156 C.ar    1  UNL1       -0.0020
@<TRIPOS>BOND
     1    21    22    1
     2    22    23    2
     3    22    15    1
     4    15    16   ar
     5    16    17   ar
     6    17     9    1
     7     9    10   am
     8    10    11    2
     9    10    12   am
    10     1    12    1
    11     1     2    1
    12     2     3    1
    13     3     4    1
    14     4     5   am
    15     5     6    2
    16     5    24    1
    17    24    25    1
    18    25    26    1
    19    25    27    1
    20    25    28    1
    21     4     7    1
    22     7     8    1
    23     8    29    1
    24    29    30    1
    25    30    31    1
    26    31    32    1
    27    32    33    1
    28    33    34    1
    29    34    36    1
    30    36    37    1
    31    37    38   ar
    32    38    39   ar
    33    39    40   ar
    34    40    41    1
    35    40    42   ar
    36    42    43   ar
    37    34    35    1
    38    17    18   ar
    39    18    19   ar
    40    19    20    1
    41    19    15   ar
    42     8     1    1
    43    35    30    1
    44    43    37   ar
    45     9    13    1
    46    12    14    1
