@<TRIPOS>MOLECULE
*****
 36 40 0 0 0
SMALL
GASTEIGER

@<TRIPOS>ATOM
      1 C           6.2472   -1.9573   19.8041 C.3     1  UNL1        0.1909
      2 C           5.3929   -2.0512   18.5748 C.3     1  UNL1        0.1783
      3 O           4.3741   -0.9518   18.6332 O.3     1  UNL1       -0.3267
      4 C           4.5988   -0.1784   19.8986 C.3     1  UNL1        0.2296
      5 O           5.7564   -0.7998   20.6224 O.3     1  UNL1       -0.3255
      6 C           3.4374    0.6404   19.4185 C.ar    1  UNL1        0.0409
      7 C           3.6641    2.0258   18.8897 C.ar    1  UNL1        0.0022
      8 C           2.5027    2.8447   18.4096 C.ar    1  UNL1        0.0113
      9 C           1.1146    2.2783   18.4582 C.ar    1  UNL1        0.0585
     10 CL         -0.0468    3.0972   17.9781 Cl      1  UNL1       -0.0822
     11 C           0.8879    0.8930   18.9870 C.ar    1  UNL1        0.0226
     12 C           2.0493    0.0741   19.4671 C.ar    1  UNL1        0.0591
     13 CL          1.8226   -1.3112   19.9959 Cl      1  UNL1       -0.0824
     14 C           7.3914   -2.8620   20.1539 C.3     1  UNL1        0.2374
     15 O           7.1283   -4.1835   20.8128 O.3     1  UNL1       -0.4727
     16 C           6.9839   -4.4707   25.3013 C.ar    1  UNL1        0.0481
     17 C           7.9435   -5.3237   24.5257 C.ar    1  UNL1        0.0176
     18 C           7.9916   -5.2280   23.0295 C.ar    1  UNL1        0.0382
     19 C           7.0802   -4.2792   22.3089 C.ar    1  UNL1        0.1388
     20 C           6.1207   -3.4263   23.0846 C.ar    1  UNL1        0.0382
     21 C           6.0725   -3.5220   24.5807 C.ar    1  UNL1        0.0176
     22 C           6.6475   -3.6104   32.1128 C.3     1  UNL1        0.0948
     23 C           6.7914   -4.8536   31.2859 C.2     1  UNL1        0.2262
     24 O           6.8872   -6.1925   31.9553 O.2     1  UNL1       -0.2749
     25 N           6.8395   -4.7578   29.7898 N.am    1  UNL1       -0.2760
     26 C           6.7437   -3.4189   29.1204 C.3     1  UNL1        0.1148
     27 C           6.7919   -3.3232   27.6243 C.3     1  UNL1        0.1123
     28 N           6.9358   -4.5664   26.7974 N.pl3   1  UNL1       -0.3041
     29 C           7.0316   -5.9053   27.4668 C.3     1  UNL1        0.1123
     30 C           6.9835   -6.0010   28.9630 C.3     1  UNL1        0.1148
     31 C           4.5807    0.7662   21.0638 C.3     1  UNL1        0.1682
     32 N           4.3638    0.2408   22.4520 N.ar    1  UNL1       -0.3025
     33 C           5.1026    0.6732   23.6837 C.ar    1  UNL1        0.0982
     34 C           4.5654   -0.1095   24.8450 C.ar    1  UNL1        0.1193
     35 N           3.4947   -1.0257   24.3310 N.ar    1  UNL1       -0.2223
     36 C           3.3701   -0.8092   22.8520 C.ar    1  UNL1        0.1788
@<TRIPOS>BOND
     1    22    23    1
     2    23    24    2
     3    23    25   am
     4    25    26    1
     5    26    27    1
     6    27    28    1
     7    28    16    1
     8    16    17   ar
     9    17    18   ar
    10    18    19   ar
    11    19    15    1
    12    15    14    1
    13     1    14    1
    14     1     2    1
    15     2     3    1
    16     3     4    1
    17     4    31    1
    18    31    32    1
    19    32    33   ar
    20    33    34   ar
    21    34    35   ar
    22    35    36   ar
    23     4     6    1
    24     6     7   ar
    25     7     8   ar
    26     8     9   ar
    27     9    10    1
    28     9    11   ar
    29    11    12   ar
    30    12    13    1
    31     4     5    1
    32    19    20   ar
    33    20    21   ar
    34    28    29    1
    35    29    30    1
    36    30    25    1
    37    21    16   ar
    38     5     1    1
    39    36    32   ar
    40    12     6   ar
@<TRIPOS>MOLECULE
*****
 36 40 0 0 0
SMALL
GASTEIGER

@<TRIPOS>ATOM
      1 C           6.9598   -5.1794   30.1912 C.3     1  UNL1        0.1909
      2 C           7.0931   -5.4128   31.6669 C.3     1  UNL1        0.1783
      3 O           6.6477   -4.1679   32.3753 O.3     1  UNL1       -0.3267
      4 C           6.2391   -3.1650   31.3373 C.3     1  UNL1        0.2296
      5 O           6.4319   -3.7901   29.9875 O.3     1  UNL1       -0.3255
      6 C           5.9482   -2.2921   32.5219 C.ar    1  UNL1        0.0409
      7 C           4.5538   -2.2107   33.0691 C.ar    1  UNL1        0.0022
      8 C           4.2628   -1.3378   34.2537 C.ar    1  UNL1        0.0113
      9 C           5.3661   -0.5463   34.8912 C.ar    1  UNL1        0.0585
     10 CL          5.0751    0.3266   36.0759 Cl      1  UNL1       -0.0822
     11 C           6.7604   -0.6278   34.3440 C.ar    1  UNL1        0.0226
     12 C           7.0514   -1.5006   33.1595 C.ar    1  UNL1        0.0591
     13 CL          8.4457   -1.5821   32.6123 Cl      1  UNL1       -0.0824
     14 C           7.2953   -6.1625   29.1091 C.3     1  UNL1        0.2374
     15 O           8.3686   -5.8424   28.1114 O.3     1  UNL1       -0.4727
     16 C           7.2578   -4.3979   23.9969 C.ar    1  UNL1        0.0481
     17 C           8.3161   -5.4478   24.1628 C.ar    1  UNL1        0.0176
     18 C           8.6864   -5.9293   25.5343 C.ar    1  UNL1        0.0382
     19 C           7.9983   -5.3609   26.7399 C.ar    1  UNL1        0.1388
     20 C           6.9399   -4.3111   26.5740 C.ar    1  UNL1        0.0382
     21 C           6.5697   -3.8296   25.2024 C.ar    1  UNL1        0.0176
     22 C           4.3470   -2.1515   18.1890 C.3     1  UNL1        0.0948
     23 C           5.7766   -2.4720   18.5108 C.2     1  UNL1        0.2262
     24 O           6.8359   -2.3109   17.4611 O.2     1  UNL1       -0.2749
     25 N           6.1469   -2.9534   19.8823 N.am    1  UNL1       -0.2760
     26 C           5.0876   -3.1145   20.9320 C.3     1  UNL1        0.1148
     27 C           5.4579   -3.5960   22.3035 C.3     1  UNL1        0.1123
     28 N           6.8875   -3.9164   22.6254 N.pl3   1  UNL1       -0.3041
     29 C           7.9467   -3.7554   21.5756 C.3     1  UNL1        0.1123
     30 C           7.5765   -3.2739   20.2041 C.3     1  UNL1        0.1148
     31 C           5.7697   -1.9796   30.5470 C.3     1  UNL1        0.1682
     32 N           6.5442   -1.5246   29.3457 N.ar    1  UNL1       -0.3025
     33 C           8.0384   -1.4560   29.2342 C.ar    1  UNL1        0.0982
     34 C           8.3781   -0.9474   27.8646 C.ar    1  UNL1        0.1193
     35 N           7.0938   -0.7017   27.1296 N.ar    1  UNL1       -0.2223
     36 C           5.9604   -1.0584   28.0450 C.ar    1  UNL1        0.1788
@<TRIPOS>BOND
     1    22    23    1
     2    23    24    2
     3    23    25   am
     4    25    26    1
     5    26    27    1
     6    27    28    1
     7    28    16    1
     8    16    17   ar
     9    17    18   ar
    10    18    19   ar
    11    19    15    1
    12    15    14    1
    13     1    14    1
    14     1     2    1
    15     2     3    1
    16     3     4    1
    17     4    31    1
    18    31    32    1
    19    32    33   ar
    20    33    34   ar
    21    34    35   ar
    22    35    36   ar
    23     4     6    1
    24     6     7   ar
    25     7     8   ar
    26     8     9   ar
    27     9    10    1
    28     9    11   ar
    29    11    12   ar
    30    12    13    1
    31     4     5    1
    32    19    20   ar
    33    20    21   ar
    34    28    29    1
    35    29    30    1
    36    30    25    1
    37    21    16   ar
    38     5     1    1
    39    36    32   ar
    40    12     6   ar
@<TRIPOS>MOLECULE
*****
 36 40 0 0 0
SMALL
GASTEIGER

@<TRIPOS>ATOM
      1 C           4.0946   -1.9831   18.5100 C.3     1  UNL1        0.1909
      2 C           4.0696   -1.1759   17.2459 C.3     1  UNL1        0.1783
      3 O           3.3154    0.0914   17.5200 O.3     1  UNL1       -0.3267
      4 C           2.8743    0.0675   18.9534 C.3     1  UNL1        0.2296
      5 O           3.3558   -1.2146   19.5654 O.3     1  UNL1       -0.3255
      6 C           2.2743    1.4029   18.6270 C.ar    1  UNL1        0.0409
      7 C           0.7892    1.5384   18.4647 C.ar    1  UNL1        0.0022
      8 C           0.1892    2.8739   18.1382 C.ar    1  UNL1        0.0113
      9 C           1.0742    4.0738   17.9740 C.ar    1  UNL1        0.0585
     10 CL          0.4742    5.4093   17.6475 Cl      1  UNL1       -0.0822
     11 C           2.5593    3.9383   18.1363 C.ar    1  UNL1        0.0226
     12 C           3.1593    2.6029   18.4627 C.ar    1  UNL1        0.0591
     13 CL          4.6443    2.4673   18.6250 Cl      1  UNL1       -0.0824
     14 C           4.7442   -3.3234   18.6876 C.3     1  UNL1        0.2374
     15 O           6.0904   -3.4236   19.3415 O.3     1  UNL1       -0.4727
     16 C           6.3926   -3.9437   23.8011 C.ar    1  UNL1        0.0481
     17 C           5.1048   -3.4828   23.1853 C.ar    1  UNL1        0.0176
     18 C           5.0041   -3.3095   21.6988 C.ar    1  UNL1        0.0382
     19 C           6.1911   -3.5969   20.8280 C.ar    1  UNL1        0.1388
     20 C           7.4789   -4.0578   21.4438 C.ar    1  UNL1        0.0382
     21 C           7.5796   -4.2312   22.9304 C.ar    1  UNL1        0.0176
     22 C           6.5830   -3.4624   30.6554 C.3     1  UNL1        0.0948
     23 C           6.7954   -4.6372   29.7473 C.2     1  UNL1        0.2262
     24 O           7.1085   -5.9853   30.3256 O.2     1  UNL1       -0.2749
     25 N           6.6947   -4.4638   28.2607 N.am    1  UNL1       -0.2760
     26 C           6.3816   -3.1157   27.6824 C.3     1  UNL1        0.1148
     27 C           6.2808   -2.9423   26.1958 C.3     1  UNL1        0.1123
     28 N           6.4933   -4.1171   25.2876 N.pl3   1  UNL1       -0.3041
     29 C           6.8064   -5.4652   25.8660 C.3     1  UNL1        0.1123
     30 C           6.9071   -5.6385   27.3525 C.3     1  UNL1        0.1148
     31 C           2.3077    0.3228   20.3187 C.3     1  UNL1        0.1682
     32 N           3.1998    0.2674   21.5234 N.ar    1  UNL1       -0.3025
     33 C           4.5971    0.8055   21.6111 C.ar    1  UNL1        0.0982
     34 C           5.1120    0.5349   22.9937 C.ar    1  UNL1        0.1193
     35 N           4.0328   -0.1705   23.7604 N.ar    1  UNL1       -0.2223
     36 C           2.8510   -0.3358   22.8517 C.ar    1  UNL1        0.1788
@<TRIPOS>BOND
     1    22    23    1
     2    23    24    2
     3    23    25   am
     4    25    26    1
     5    26    27    1
     6    27    28    1
     7    28    16    1
     8    16    17   ar
     9    17    18   ar
    10    18    19   ar
    11    19    15    1
    12    15    14    1
    13     1    14    1
    14     1     2    1
    15     2     3    1
    16     3     4    1
    17     4    31    1
    18    31    32    1
    19    32    33   ar
    20    33    34   ar
    21    34    35   ar
    22    35    36   ar
    23     4     6    1
    24     6     7   ar
    25     7     8   ar
    26     8     9   ar
    27     9    10    1
    28     9    11   ar
    29    11    12   ar
    30    12    13    1
    31     4     5    1
    32    19    20   ar
    33    20    21   ar
    34    28    29    1
    35    29    30    1
    36    30    25    1
    37    21    16   ar
    38     5     1    1
    39    36    32   ar
    40    12     6   ar
@<TRIPOS>MOLECULE
*****
 36 40 0 0 0
SMALL
GASTEIGER

@<TRIPOS>ATOM
      1 C           7.4322   -5.1722   24.8613 C.3     1  UNL1        0.1909
      2 C           7.9653   -5.4882   23.4953 C.3     1  UNL1        0.1783
      3 O           7.1842   -4.6873   22.4962 O.3     1  UNL1       -0.3267
      4 C           6.1682   -3.8763   23.2446 C.3     1  UNL1        0.2296
      5 O           6.3215   -4.1760   24.7064 O.3     1  UNL1       -0.3255
      6 C           5.7859   -3.3857   21.8798 C.ar    1  UNL1        0.0409
      7 C           4.5153   -3.8620   21.2402 C.ar    1  UNL1        0.0022
      8 C           4.1329   -3.3714   19.8753 C.ar    1  UNL1        0.0113
      9 C           5.0210   -2.4044   19.1499 C.ar    1  UNL1        0.0585
     10 CL          4.6386   -1.9137   17.7849 Cl      1  UNL1       -0.0822
     11 C           6.2916   -1.9280   19.7894 C.ar    1  UNL1        0.0226
     12 C           6.6739   -2.4187   21.1543 C.ar    1  UNL1        0.0591
     13 CL          7.9444   -1.9424   21.7938 Cl      1  UNL1       -0.0824
     14 C           7.9235   -5.7508   26.1551 C.3     1  UNL1        0.2374
     15 O           6.9469   -6.1052   27.2370 O.3     1  UNL1       -0.4727
     16 C           6.5013   -3.4325   30.8298 C.ar    1  UNL1        0.0481
     17 C           6.2622   -2.8854   29.4538 C.ar    1  UNL1        0.0176
     18 C           6.4107   -3.7763   28.2562 C.ar    1  UNL1        0.0382
     19 C           6.7983   -5.2143   28.4346 C.ar    1  UNL1        0.1388
     20 C           7.0374   -5.7614   29.8106 C.ar    1  UNL1        0.0382
     21 C           6.8889   -4.8705   31.0082 C.ar    1  UNL1        0.0176
     22 C           4.5997    0.1912   36.3527 C.3     1  UNL1        0.0948
     23 C           5.9073    0.1311   35.6202 C.2     1  UNL1        0.2262
     24 O           7.0663    0.9618   36.0853 O.2     1  UNL1       -0.2749
     25 N           6.0558   -0.7598   34.4226 N.am    1  UNL1       -0.2760
     26 C           4.8967   -1.5906   33.9575 C.3     1  UNL1        0.1148
     27 C           5.0452   -2.4815   32.7599 C.3     1  UNL1        0.1123
     28 N           6.3528   -2.5416   32.0274 N.pl3   1  UNL1       -0.3041
     29 C           7.5118   -1.7109   32.4925 C.3     1  UNL1        0.1123
     30 C           7.3633   -0.8200   33.6901 C.3     1  UNL1        0.1148
     31 C           5.0724   -2.9627   23.7078 C.3     1  UNL1        0.1682
     32 N           5.3498   -1.9333   24.7630 N.ar    1  UNL1       -0.3025
     33 C           6.5751   -1.0731   24.8549 C.ar    1  UNL1        0.0982
     34 C           6.4332   -0.1915   26.0601 C.ar    1  UNL1        0.1193
     35 N           5.1201   -0.5069   26.7131 N.ar    1  UNL1       -0.2223
     36 C           4.4505   -1.5833   25.9114 C.ar    1  UNL1        0.1788
@<TRIPOS>BOND
     1    22    23    1
     2    23    24    2
     3    23    25   am
     4    25    26    1
     5    26    27    1
     6    27    28    1
     7    28    16    1
     8    16    17   ar
     9    17    18   ar
    10    18    19   ar
    11    19    15    1
    12    15    14    1
    13     1    14    1
    14     1     2    1
    15     2     3    1
    16     3     4    1
    17     4    31    1
    18    31    32    1
    19    32    33   ar
    20    33    34   ar
    21    34    35   ar
    22    35    36   ar
    23     4     6    1
    24     6     7   ar
    25     7     8   ar
    26     8     9   ar
    27     9    10    1
    28     9    11   ar
    29    11    12   ar
    30    12    13    1
    31     4     5    1
    32    19    20   ar
    33    20    21   ar
    34    28    29    1
    35    29    30    1
    36    30    25    1
    37    21    16   ar
    38     5     1    1
    39    36    32   ar
    40    12     6   ar
@<TRIPOS>MOLECULE
*****
 36 40 0 0 0
SMALL
GASTEIGER

@<TRIPOS>ATOM
      1 C           5.1054   -1.1470   18.2260 C.3     1  UNL1        0.1909
      2 C           4.1166   -0.9042   17.1244 C.3     1  UNL1        0.1783
      3 O           3.3283    0.3239   17.4715 O.3     1  UNL1       -0.3267
      4 C           3.8298    0.8400   18.7876 C.3     1  UNL1        0.2296
      5 O           4.9281   -0.0690   19.2539 O.3     1  UNL1       -0.3255
      6 C           2.7910    1.9034   18.5877 C.ar    1  UNL1        0.0409
      7 C           3.2059    3.2978   18.2223 C.ar    1  UNL1        0.0022
      8 C           2.1670    4.3613   18.0224 C.ar    1  UNL1        0.0113
      9 C           0.7134    4.0303   18.1879 C.ar    1  UNL1        0.0585
     10 CL         -0.3254    5.0937   17.9880 Cl      1  UNL1       -0.0822
     11 C           0.2986    2.6358   18.5534 C.ar    1  UNL1        0.0226
     12 C           1.3374    1.5725   18.7532 C.ar    1  UNL1        0.0591
     13 CL          0.9226    0.1781   19.1187 Cl      1  UNL1       -0.0824
     14 C           6.0972   -2.2706   18.2886 C.3     1  UNL1        0.2374
     15 O           5.7412   -3.5469   18.9915 O.3     1  UNL1       -0.4727
     16 C           6.1969   -3.8587   23.4575 C.ar    1  UNL1        0.0481
     17 C           7.3774   -4.1009   22.5645 C.ar    1  UNL1        0.0176
     18 C           7.2255   -3.9970   21.0758 C.ar    1  UNL1        0.0382
     19 C           5.8931   -3.6509   20.4802 C.ar    1  UNL1        0.1388
     20 C           4.7126   -3.4087   21.3733 C.ar    1  UNL1        0.0382
     21 C           4.8645   -3.5126   22.8619 C.ar    1  UNL1        0.0176
     22 C           7.2425   -5.5678   30.0329 C.3     1  UNL1        0.0948
     23 C           6.8044   -4.2745   29.4122 C.2     1  UNL1        0.2262
     24 O           6.5182   -3.0851   30.2801 O.2     1  UNL1       -0.2749
     25 N           6.6525   -4.1705   27.9235 N.am    1  UNL1       -0.2760
     26 C           6.9387   -5.3599   27.0556 C.3     1  UNL1        0.1148
     27 C           6.7868   -5.2560   25.5669 C.3     1  UNL1        0.1123
     28 N           6.3488   -3.9627   24.9462 N.pl3   1  UNL1       -0.3041
     29 C           6.0626   -2.7733   25.8141 C.3     1  UNL1        0.1123
     30 C           6.2145   -2.8772   27.3028 C.3     1  UNL1        0.1148
     31 C           4.1142    1.5784   20.0620 C.3     1  UNL1        0.1682
     32 N           3.9624    0.8825   21.3820 N.ar    1  UNL1       -0.3025
     33 C           4.9082    0.9768   22.5423 C.ar    1  UNL1        0.0982
     34 C           4.3684    0.1226   23.6509 C.ar    1  UNL1        0.1193
     35 N           3.0889   -0.4995   23.1758 N.ar    1  UNL1       -0.2223
     36 C           2.8380   -0.0298   21.7735 C.ar    1  UNL1        0.1788
@<TRIPOS>BOND
     1    22    23    1
     2    23    24    2
     3    23    25   am
     4    25    26    1
     5    26    27    1
     6    27    28    1
     7    28    16    1
     8    16    17   ar
     9    17    18   ar
    10    18    19   ar
    11    19    15    1
    12    15    14    1
    13     1    14    1
    14     1     2    1
    15     2     3    1
    16     3     4    1
    17     4    31    1
    18    31    32    1
    19    32    33   ar
    20    33    34   ar
    21    34    35   ar
    22    35    36   ar
    23     4     6    1
    24     6     7   ar
    25     7     8   ar
    26     8     9   ar
    27     9    10    1
    28     9    11   ar
    29    11    12   ar
    30    12    13    1
    31     4     5    1
    32    19    20   ar
    33    20    21   ar
    34    28    29    1
    35    29    30    1
    36    30    25    1
    37    21    16   ar
    38     5     1    1
    39    36    32   ar
    40    12     6   ar
@<TRIPOS>MOLECULE
*****
 36 40 0 0 0
SMALL
GASTEIGER

@<TRIPOS>ATOM
      1 C          -0.7949    3.1944   19.9619 C.3     1  UNL1        0.1909
      2 C          -0.3492    3.6331   21.3253 C.3     1  UNL1        0.1783
      3 O          -1.5734    3.9206   22.1430 O.3     1  UNL1       -0.3267
      4 C          -2.7757    3.6596   21.2850 C.3     1  UNL1        0.2296
      5 O          -2.2946    3.2107   19.9369 O.3     1  UNL1       -0.3255
      6 C          -3.5416    4.0718   22.5069 C.ar    1  UNL1        0.0409
      7 C          -4.3197    3.0516   23.2841 C.ar    1  UNL1        0.0022
      8 C          -5.0857    3.4639   24.5061 C.ar    1  UNL1        0.0113
      9 C          -5.0736    4.8963   24.9510 C.ar    1  UNL1        0.0585
     10 CL         -5.8396    5.3086   26.1730 Cl      1  UNL1       -0.0822
     11 C          -4.2956    5.9166   24.1738 C.ar    1  UNL1        0.0226
     12 C          -3.5297    5.5043   22.9519 C.ar    1  UNL1        0.0591
     13 CL         -2.7517    6.5245   22.1747 Cl      1  UNL1       -0.0824
     14 C           0.1017    2.8072   18.8234 C.3     1  UNL1        0.2374
     15 O           0.1808    1.3751   18.3845 O.3     1  UNL1       -0.4727
     16 C           3.5480   -1.2380   19.8280 C.ar    1  UNL1        0.0481
     17 C           2.3808   -0.9540   20.7264 C.ar    1  UNL1        0.0176
     18 C           1.2584   -0.0830   20.2452 C.ar    1  UNL1        0.0382
     19 C           1.3032    0.5041   18.8657 C.ar    1  UNL1        0.1388
     20 C           2.4703    0.2201   17.9673 C.ar    1  UNL1        0.0382
     21 C           3.5927   -0.6509   18.4485 C.ar    1  UNL1        0.0176
     22 C           9.3724   -4.6705   21.0706 C.3     1  UNL1        0.0948
     23 C           8.0375   -4.7221   21.7528 C.2     1  UNL1        0.2262
     24 O           7.8251   -5.6448   22.9162 O.2     1  UNL1       -0.2749
     25 N           6.9151   -3.8511   21.2716 N.am    1  UNL1       -0.2760
     26 C           7.1276   -2.9285   20.1082 C.3     1  UNL1        0.1148
     27 C           6.0052   -2.0574   19.6270 C.3     1  UNL1        0.1123
     28 N           4.6703   -2.1090   20.3092 N.pl3   1  UNL1       -0.3041
     29 C           4.4579   -3.0317   21.4726 C.3     1  UNL1        0.1123
     30 C           5.5803   -3.9027   21.9538 C.3     1  UNL1        0.1148
     31 C          -4.1382    3.4847   20.6823 C.3     1  UNL1        0.1682
     32 N          -4.5035    4.2211   19.4276 N.ar    1  UNL1       -0.3025
     33 C          -5.0868    3.6132   18.1866 C.ar    1  UNL1        0.0982
     34 C          -5.2934    4.7111   17.1857 C.ar    1  UNL1        0.1193
     35 N          -4.8379    5.9976   17.8081 N.ar    1  UNL1       -0.2223
     36 C          -4.3497    5.6948   19.1937 C.ar    1  UNL1        0.1788
@<TRIPOS>BOND
     1    22    23    1
     2    23    24    2
     3    23    25   am
     4    25    26    1
     5    26    27    1
     6    27    28    1
     7    28    16    1
     8    16    17   ar
     9    17    18   ar
    10    18    19   ar
    11    19    15    1
    12    15    14    1
    13     1    14    1
    14     1     2    1
    15     2     3    1
    16     3     4    1
    17     4    31    1
    18    31    32    1
    19    32    33   ar
    20    33    34   ar
    21    34    35   ar
    22    35    36   ar
    23     4     6    1
    24     6     7   ar
    25     7     8   ar
    26     8     9   ar
    27     9    10    1
    28     9    11   ar
    29    11    12   ar
    30    12    13    1
    31     4     5    1
    32    19    20   ar
    33    20    21   ar
    34    28    29    1
    35    29    30    1
    36    30    25    1
    37    21    16   ar
    38     5     1    1
    39    36    32   ar
    40    12     6   ar
@<TRIPOS>MOLECULE
*****
 36 40 0 0 0
SMALL
GASTEIGER

@<TRIPOS>ATOM
      1 C           1.2693    1.6700   21.5296 C.3     1  UNL1        0.1909
      2 C           0.5479    0.5080   20.9137 C.3     1  UNL1        0.1783
      3 O           1.5696   -0.5204   20.5283 O.3     1  UNL1       -0.3267
      4 C           2.9225    0.0060   20.9060 C.3     1  UNL1        0.2296
      5 O           2.7369    1.3597   21.5249 O.3     1  UNL1       -0.3255
      6 C           3.4122   -1.2945   20.3415 C.ar    1  UNL1        0.0409
      7 C           3.6900   -2.4514   21.2551 C.ar    1  UNL1        0.0022
      8 C           4.1798   -3.7520   20.6905 C.ar    1  UNL1        0.0113
      9 C           4.3918   -3.8957   19.2126 C.ar    1  UNL1        0.0585
     10 CL          4.8816   -5.1962   18.6481 Cl      1  UNL1       -0.0822
     11 C           4.1140   -2.7387   18.2991 C.ar    1  UNL1        0.0226
     12 C           3.6243   -1.4383   18.8635 C.ar    1  UNL1        0.0591
     13 CL          3.3464   -0.2814   17.9501 Cl      1  UNL1       -0.0824
     14 C           0.6346    2.9224   22.0575 C.3     1  UNL1        0.2374
     15 O          -0.2836    2.8561   23.2417 O.3     1  UNL1       -0.4727
     16 C           1.3204    1.6432   27.2674 C.ar    1  UNL1        0.0481
     17 C           2.2338    2.2632   26.2519 C.ar    1  UNL1        0.0176
     18 C           1.6991    2.6675   24.9100 C.ar    1  UNL1        0.0382
     19 C           0.2511    2.4518   24.5836 C.ar    1  UNL1        0.1388
     20 C          -0.6623    1.8318   25.5991 C.ar    1  UNL1        0.0382
     21 C          -0.1277    1.4275   26.9410 C.ar    1  UNL1        0.0176
     22 C           3.8579    1.0747   33.6304 C.3     1  UNL1        0.0948
     23 C           3.4590    0.0260   32.6350 C.2     1  UNL1        0.2262
     24 O           3.5948   -1.4271   32.9815 O.2     1  UNL1       -0.2749
     25 N           2.9243    0.4303   31.2931 N.am    1  UNL1       -0.2760
     26 C           2.7886    1.8833   30.9466 C.3     1  UNL1        0.1148
     27 C           2.2539    2.2877   29.6047 C.3     1  UNL1        0.1123
     28 N           1.8550    1.2389   28.6093 N.pl3   1  UNL1       -0.3041
     29 C           1.9908   -0.2142   28.9558 C.3     1  UNL1        0.1123
     30 C           2.5255   -0.6185   30.2977 C.3     1  UNL1        0.1148
     31 C           4.3778    0.2606   21.1658 C.3     1  UNL1        0.1682
     32 N           4.8357    0.6649   22.5357 N.ar    1  UNL1       -0.3025
     33 C           5.6933    1.8507   22.8644 C.ar    1  UNL1        0.0982
     34 C           5.9040    1.8731   24.3493 C.ar    1  UNL1        0.1193
     35 N           5.1765    0.7011   24.9384 N.ar    1  UNL1       -0.2223
     36 C           4.5162   -0.0456   23.8175 C.ar    1  UNL1        0.1788
@<TRIPOS>BOND
     1    22    23    1
     2    23    24    2
     3    23    25   am
     4    25    26    1
     5    26    27    1
     6    27    28    1
     7    28    16    1
     8    16    17   ar
     9    17    18   ar
    10    18    19   ar
    11    19    15    1
    12    15    14    1
    13     1    14    1
    14     1     2    1
    15     2     3    1
    16     3     4    1
    17     4    31    1
    18    31    32    1
    19    32    33   ar
    20    33    34   ar
    21    34    35   ar
    22    35    36   ar
    23     4     6    1
    24     6     7   ar
    25     7     8   ar
    26     8     9   ar
    27     9    10    1
    28     9    11   ar
    29    11    12   ar
    30    12    13    1
    31     4     5    1
    32    19    20   ar
    33    20    21   ar
    34    28    29    1
    35    29    30    1
    36    30    25    1
    37    21    16   ar
    38     5     1    1
    39    36    32   ar
    40    12     6   ar
@<TRIPOS>MOLECULE
*****
 36 40 0 0 0
SMALL
GASTEIGER

@<TRIPOS>ATOM
      1 C           2.5044    0.2284   30.6700 C.3     1  UNL1        0.1909
      2 C           2.9246    1.4646   31.4084 C.3     1  UNL1        0.1783
      3 O           3.8608    1.0533   32.5059 O.3     1  UNL1       -0.3267
      4 C           4.0192   -0.4371   32.4458 C.3     1  UNL1        0.2296
      5 O           3.1809   -0.9470   31.3112 O.3     1  UNL1       -0.3255
      6 C           4.9303   -0.2297   33.6191 C.ar    1  UNL1        0.0409
      7 C           4.5112   -0.6883   34.9844 C.ar    1  UNL1        0.0022
      8 C           5.4224   -0.4809   36.1578 C.ar    1  UNL1        0.0113
      9 C           6.7527    0.1850   35.9658 C.ar    1  UNL1        0.0585
     10 CL          7.6639    0.3923   37.1391 Cl      1  UNL1       -0.0822
     11 C           7.1718    0.6435   34.6004 C.ar    1  UNL1        0.0226
     12 C           6.2607    0.4362   33.4272 C.ar    1  UNL1        0.0591
     13 CL          6.6798    0.8947   32.0618 Cl      1  UNL1       -0.0824
     14 C           1.5715    0.1765   29.4965 C.3     1  UNL1        0.2374
     15 O           1.7204    1.1625   28.3760 O.3     1  UNL1       -0.4727
     16 C           2.8307   -0.2653   24.2554 C.ar    1  UNL1        0.0481
     17 C           1.6871    0.6884   24.4359 C.ar    1  UNL1        0.0176
     18 C           1.3170    1.1643   25.8094 C.ar    1  UNL1        0.0382
     19 C           2.0905    0.6865   27.0024 C.ar    1  UNL1        0.1388
     20 C           3.2340   -0.2672   26.8220 C.ar    1  UNL1        0.0382
     21 C           3.6042   -0.7431   25.4485 C.ar    1  UNL1        0.0176
     22 C           5.1096   -3.4276   18.5936 C.3     1  UNL1        0.0948
     23 C           4.3111   -2.1689   18.7614 C.2     1  UNL1        0.2262
     24 O           3.8827   -1.3862   17.5557 O.2     1  UNL1       -0.2749
     25 N           3.9410   -1.6930   20.1349 N.am    1  UNL1       -0.2760
     26 C           4.3693   -2.4758   21.3406 C.3     1  UNL1        0.1148
     27 C           3.9992   -1.9998   22.7141 C.3     1  UNL1        0.1123
     28 N           3.2008   -0.7412   22.8819 N.pl3   1  UNL1       -0.3041
     29 C           2.7724    0.0416   21.6762 C.3     1  UNL1        0.1123
     30 C           3.1425   -0.4344   20.3027 C.3     1  UNL1        0.1148
     31 C           4.3680   -1.8842   32.6310 C.3     1  UNL1        0.1682
     32 N           5.5024   -2.4873   31.8568 N.ar    1  UNL1       -0.3025
     33 C           5.9561   -2.0710   30.4891 C.ar    1  UNL1        0.0982
     34 C           7.1163   -2.9391   30.1014 C.ar    1  UNL1        0.1193
     35 N           7.3796   -3.8919   31.2295 N.ar    1  UNL1       -0.2223
     36 C           6.3821   -3.6128   32.3144 C.ar    1  UNL1        0.1788
@<TRIPOS>BOND
     1    22    23    1
     2    23    24    2
     3    23    25   am
     4    25    26    1
     5    26    27    1
     6    27    28    1
     7    28    16    1
     8    16    17   ar
     9    17    18   ar
    10    18    19   ar
    11    19    15    1
    12    15    14    1
    13     1    14    1
    14     1     2    1
    15     2     3    1
    16     3     4    1
    17     4    31    1
    18    31    32    1
    19    32    33   ar
    20    33    34   ar
    21    34    35   ar
    22    35    36   ar
    23     4     6    1
    24     6     7   ar
    25     7     8   ar
    26     8     9   ar
    27     9    10    1
    28     9    11   ar
    29    11    12   ar
    30    12    13    1
    31     4     5    1
    32    19    20   ar
    33    20    21   ar
    34    28    29    1
    35    29    30    1
    36    30    25    1
    37    21    16   ar
    38     5     1    1
    39    36    32   ar
    40    12     6   ar
@<TRIPOS>MOLECULE
*****
 36 40 0 0 0
SMALL
GASTEIGER

@<TRIPOS>ATOM
      1 C          -0.9880    2.9575   20.9101 C.3     1  UNL1        0.1909
      2 C          -0.7032    3.7100   22.1761 C.3     1  UNL1        0.1783
      3 O          -2.0156    4.0607   22.8121 O.3     1  UNL1       -0.3267
      4 C          -3.1116    3.5250   21.9392 C.3     1  UNL1        0.2296
      5 O          -2.4765    2.8432   20.7637 O.3     1  UNL1       -0.3255
      6 C          -4.0152    4.1209   22.9775 C.ar    1  UNL1        0.0409
      7 C          -4.7146    3.2317   23.9626 C.ar    1  UNL1        0.0022
      8 C          -5.6183    3.8276   25.0009 C.ar    1  UNL1        0.0113
      9 C          -5.8227    5.3126   25.0543 C.ar    1  UNL1        0.0585
     10 CL         -6.7264    5.9086   26.0927 Cl      1  UNL1       -0.0822
     11 C          -5.1233    6.2019   24.0692 C.ar    1  UNL1        0.0226
     12 C          -4.2196    5.6060   23.0309 C.ar    1  UNL1        0.0591
     13 CL         -3.5203    6.4951   22.0458 Cl      1  UNL1       -0.0824
     14 C           0.0359    2.4146   19.9578 C.3     1  UNL1        0.2374
     15 O           0.1952    0.9323   19.7928 O.3     1  UNL1       -0.4727
     16 C           3.2806   -1.2818   22.2070 C.ar    1  UNL1        0.0481
     17 C           2.9960   -1.6953   20.7935 C.ar    1  UNL1        0.0176
     18 C           1.9676   -0.9573   19.9888 C.ar    1  UNL1        0.0382
     19 C           1.2237    0.1942   20.5975 C.ar    1  UNL1        0.1388
     20 C           1.5082    0.6077   22.0110 C.ar    1  UNL1        0.0382
     21 C           2.5367   -0.1303   22.8158 C.ar    1  UNL1        0.0176
     22 C           8.0721   -5.4417   24.8502 C.3     1  UNL1        0.0948
     23 C           7.3944   -4.2338   25.4260 C.2     1  UNL1        0.2262
     24 O           7.7452   -3.7639   26.8066 O.2     1  UNL1       -0.2749
     25 N           6.3659   -3.4958   24.6213 N.am    1  UNL1       -0.2760
     26 C           6.0152   -3.9657   23.2407 C.3     1  UNL1        0.1148
     27 C           4.9867   -3.2277   22.4359 C.3     1  UNL1        0.1123
     28 N           4.3090   -2.0198   23.0118 N.pl3   1  UNL1       -0.3041
     29 C           4.6598   -1.5499   24.3924 C.3     1  UNL1        0.1123
     30 C           5.6883   -2.2879   25.1971 C.3     1  UNL1        0.1148
     31 C          -4.3964    3.1139   21.2833 C.3     1  UNL1        0.1682
     32 N          -4.7979    3.7229   19.9726 N.ar    1  UNL1       -0.3025
     33 C          -4.0755    4.8233   19.2536 C.ar    1  UNL1        0.0982
     34 C          -4.8235    5.1189   17.9875 C.ar    1  UNL1        0.1193
     35 N          -6.0082    4.2011   17.9240 N.ar    1  UNL1       -0.2223
     36 C          -5.9924    3.3383   19.1509 C.ar    1  UNL1        0.1788
@<TRIPOS>BOND
     1    22    23    1
     2    23    24    2
     3    23    25   am
     4    25    26    1
     5    26    27    1
     6    27    28    1
     7    28    16    1
     8    16    17   ar
     9    17    18   ar
    10    18    19   ar
    11    19    15    1
    12    15    14    1
    13     1    14    1
    14     1     2    1
    15     2     3    1
    16     3     4    1
    17     4    31    1
    18    31    32    1
    19    32    33   ar
    20    33    34   ar
    21    34    35   ar
    22    35    36   ar
    23     4     6    1
    24     6     7   ar
    25     7     8   ar
    26     8     9   ar
    27     9    10    1
    28     9    11   ar
    29    11    12   ar
    30    12    13    1
    31     4     5    1
    32    19    20   ar
    33    20    21   ar
    34    28    29    1
    35    29    30    1
    36    30    25    1
    37    21    16   ar
    38     5     1    1
    39    36    32   ar
    40    12     6   ar
