@<TRIPOS>MOLECULE
*****
 25 28 0 0 0
SMALL
GASTEIGER

@<TRIPOS>ATOM
      1 C           6.7882   -4.1612   23.2586 C.ar    1  UNL1        0.1917
      2 N           7.6642   -4.9759   22.3537 N.ar    1  UNL1       -0.1268
      3 N           7.2881   -4.6595   20.9365 N.ar    1  UNL1       -0.1316
      4 C           6.1797   -3.6493   20.9655 C.ar    1  UNL1        0.1615
      5 N           5.8707   -3.3413   22.4006 N.ar    1  UNL1       -0.2940
      6 C           4.7938   -2.3541   22.7408 C.3     1  UNL1        0.1302
      7 C           4.0259   -1.6748   21.6458 C.3     1  UNL1        0.1186
      8 N           4.3349   -1.9828   20.2107 N.am    1  UNL1       -0.2688
      9 C           3.5670   -1.3036   19.1157 C.2     1  UNL1        0.2493
     10 O           3.8760   -1.6116   17.6805 O.2     1  UNL1       -0.2699
     11 C           5.4118   -2.9700   19.8705 C.3     1  UNL1        0.1343
     12 C           5.7208   -3.2780   18.4354 C.3     1  UNL1        0.0298
     13 C           2.4902   -0.3164   19.4559 C.ar    1  UNL1        0.0536
     14 C           2.6649    1.1328   19.1104 C.ar    1  UNL1        0.0054
     15 C           1.5879    2.1200   19.4506 C.ar    1  UNL1        0.0115
     16 C           0.3364    1.6581   20.1363 C.ar    1  UNL1        0.0577
     17 CL         -0.7405    2.6453   20.4765 Cl      1  UNL1       -0.0822
     18 C           0.1617    0.2089   20.4817 C.ar    1  UNL1        0.0115
     19 C           1.2385   -0.7783   20.1415 C.ar    1  UNL1        0.0054
     20 C           6.9837   -5.8057   28.2723 C.3     1  UNL1        0.0744
     21 C           6.9133   -4.9215   27.0627 C.ar    1  UNL1        0.1481
     22 N           6.8420   -3.4232   27.0689 N.ar    1  UNL1       -0.1929
     23 S           6.7864   -2.9560   25.6445 S.2     1  UNL1        0.0369
     24 C           6.8234   -4.1655   24.7582 C.ar    1  UNL1        0.1652
     25 N           6.9018   -5.3803   25.6346 N.ar    1  UNL1       -0.2190
@<TRIPOS>BOND
     1    20    21    1
     2    21    22   ar
     3    22    23   ar
     4    23    24   ar
     5    24     1    1
     6     1     2   ar
     7     2     3   ar
     8     3     4   ar
     9     4     5   ar
    10     5     6    1
    11     6     7    1
    12     7     8    1
    13     8     9   am
    14     9    10    2
    15     9    13    1
    16    13    14   ar
    17    14    15   ar
    18    15    16   ar
    19    16    17    1
    20    16    18   ar
    21    18    19   ar
    22     8    11    1
    23    11    12    1
    24    24    25   ar
    25    25    21   ar
    26     5     1   ar
    27    19    13   ar
    28    11     4    1
@<TRIPOS>MOLECULE
*****
 25 28 0 0 0
SMALL
GASTEIGER

@<TRIPOS>ATOM
      1 C           5.5746   -1.2162   33.2550 C.ar    1  UNL1        0.1917
      2 N           5.6107   -0.7137   34.6679 N.ar    1  UNL1       -0.1268
      3 N           4.5510    0.3380   34.8129 N.ar    1  UNL1       -0.1316
      4 C           3.8600    0.4854   33.4897 C.ar    1  UNL1        0.1615
      5 N           4.4927   -0.4752   32.5269 N.ar    1  UNL1       -0.2940
      6 C           4.0018   -0.5509   31.1115 C.3     1  UNL1        0.1302
      7 C           2.8783    0.3339   30.6589 C.3     1  UNL1        0.1186
      8 N           2.2456    1.2945   31.6217 N.am    1  UNL1       -0.2688
      9 C           1.1221    2.1793   31.1692 C.2     1  UNL1        0.2493
     10 O           0.4894    3.1398   32.1321 O.2     1  UNL1       -0.2699
     11 C           2.7365    1.3702   33.0372 C.3     1  UNL1        0.1343
     12 C           2.1038    2.3308   34.0000 C.3     1  UNL1        0.0298
     13 C           0.6313    2.1035   29.7539 C.ar    1  UNL1        0.0536
     14 C          -0.3593    1.0486   29.3590 C.ar    1  UNL1        0.0054
     15 C          -0.8501    0.9729   27.9435 C.ar    1  UNL1        0.0115
     16 C          -0.3504    1.9520   26.9230 C.ar    1  UNL1        0.0577
     17 CL         -0.8412    1.8763   25.5076 Cl      1  UNL1       -0.0822
     18 C           0.6402    3.0070   27.3179 C.ar    1  UNL1        0.0115
     19 C           1.1310    3.0827   28.7333 C.ar    1  UNL1        0.0054
     20 C           7.2630   -5.7386   31.1154 C.3     1  UNL1        0.0744
     21 C           7.2404   -4.3528   31.6891 C.ar    1  UNL1        0.1481
     22 N           8.4265   -3.4513   31.8633 N.ar    1  UNL1       -0.1929
     23 S           7.9468   -2.1665   32.4711 S.2     1  UNL1        0.0369
     24 C           6.4643   -2.2741   32.6725 C.ar    1  UNL1        0.1652
     25 N           6.0277   -3.6253   32.1892 N.ar    1  UNL1       -0.2190
@<TRIPOS>BOND
     1    20    21    1
     2    21    22   ar
     3    22    23   ar
     4    23    24   ar
     5    24     1    1
     6     1     2   ar
     7     2     3   ar
     8     3     4   ar
     9     4     5   ar
    10     5     6    1
    11     6     7    1
    12     7     8    1
    13     8     9   am
    14     9    10    2
    15     9    13    1
    16    13    14   ar
    17    14    15   ar
    18    15    16   ar
    19    16    17    1
    20    16    18   ar
    21    18    19   ar
    22     8    11    1
    23    11    12    1
    24    24    25   ar
    25    25    21   ar
    26     5     1   ar
    27    19    13   ar
    28    11     4    1
@<TRIPOS>MOLECULE
*****
 25 28 0 0 0
SMALL
GASTEIGER

@<TRIPOS>ATOM
      1 C           5.8828   -3.1809   23.2272 C.ar    1  UNL1        0.1917
      2 N           6.5457   -4.3701   22.5975 N.ar    1  UNL1       -0.1268
      3 N           6.3407   -4.2835   21.1141 N.ar    1  UNL1       -0.1316
      4 C           5.5511   -3.0409   20.8270 C.ar    1  UNL1        0.1615
      5 N           5.2681   -2.3594   22.1330 N.ar    1  UNL1       -0.2940
      6 C           4.4873   -1.0790   22.1571 C.3     1  UNL1        0.1302
      7 C           3.9894   -0.4798   20.8752 C.3     1  UNL1        0.1186
      8 N           4.2723   -1.1613   19.5692 N.am    1  UNL1       -0.2688
      9 C           3.7745   -0.5622   18.2873 C.2     1  UNL1        0.2493
     10 O           4.0575   -1.2437   16.9814 O.2     1  UNL1       -0.2699
     11 C           5.0532   -2.4418   19.5451 C.3     1  UNL1        0.1343
     12 C           5.3362   -3.1233   18.2392 C.3     1  UNL1        0.0298
     13 C           2.9937    0.7182   18.3114 C.ar    1  UNL1        0.0536
     14 C           3.7115    2.0351   18.2860 C.ar    1  UNL1        0.0054
     15 C           2.9306    3.3156   18.3101 C.ar    1  UNL1        0.0115
     16 C           1.4319    3.2792   18.3596 C.ar    1  UNL1        0.0577
     17 CL          0.6510    4.5598   18.3838 Cl      1  UNL1       -0.0822
     18 C           0.7140    1.9624   18.3851 C.ar    1  UNL1        0.0115
     19 C           1.4949    0.6820   18.3610 C.ar    1  UNL1        0.0054
     20 C           4.4118   -1.2228   27.9050 C.3     1  UNL1        0.0744
     21 C           5.1656   -1.9681   26.8438 C.ar    1  UNL1        0.1481
     22 N           6.3918   -2.8056   27.0568 N.ar    1  UNL1       -0.1929
     23 S           6.8097   -3.3618   25.7278 S.2     1  UNL1        0.0369
     24 C           5.8418   -2.8682   24.6936 C.ar    1  UNL1        0.1652
     25 N           4.8258   -2.0068   25.3833 N.ar    1  UNL1       -0.2190
@<TRIPOS>BOND
     1    20    21    1
     2    21    22   ar
     3    22    23   ar
     4    23    24   ar
     5    24     1    1
     6     1     2   ar
     7     2     3   ar
     8     3     4   ar
     9     4     5   ar
    10     5     6    1
    11     6     7    1
    12     7     8    1
    13     8     9   am
    14     9    10    2
    15     9    13    1
    16    13    14   ar
    17    14    15   ar
    18    15    16   ar
    19    16    17    1
    20    16    18   ar
    21    18    19   ar
    22     8    11    1
    23    11    12    1
    24    24    25   ar
    25    25    21   ar
    26     5     1   ar
    27    19    13   ar
    28    11     4    1
@<TRIPOS>MOLECULE
*****
 25 28 0 0 0
SMALL
GASTEIGER

@<TRIPOS>ATOM
      1 C           5.8082   -2.7246   27.0063 C.ar    1  UNL1        0.1917
      2 N           6.7637   -3.7193   27.5960 N.ar    1  UNL1       -0.1268
      3 N           7.4208   -4.4564   26.4669 N.ar    1  UNL1       -0.1316
      4 C           6.8715   -3.9173   25.1794 C.ar    1  UNL1        0.1615
      5 N           5.8748   -2.8470   25.5128 N.ar    1  UNL1       -0.2940
      6 C           5.1567   -2.1221   24.4133 C.3     1  UNL1        0.1302
      7 C           5.4352   -2.4676   22.9804 C.3     1  UNL1        0.1186
      8 N           6.4318   -3.5379   22.6470 N.am    1  UNL1       -0.2688
      9 C           6.7104   -3.8833   21.2142 C.2     1  UNL1        0.2493
     10 O           7.7070   -4.9536   20.8808 O.2     1  UNL1       -0.2699
     11 C           7.1500   -4.2627   23.7465 C.3     1  UNL1        0.1343
     12 C           8.1466   -5.3330   23.4131 C.3     1  UNL1        0.0298
     13 C           5.9922   -3.1584   20.1147 C.ar    1  UNL1        0.0536
     14 C           4.5962   -3.5587   19.7395 C.ar    1  UNL1        0.0054
     15 C           3.8780   -2.8338   18.6399 C.ar    1  UNL1        0.0115
     16 C           4.5559   -1.7086   17.9158 C.ar    1  UNL1        0.0577
     17 CL          3.8378   -0.9837   16.8163 Cl      1  UNL1       -0.0822
     18 C           5.9520   -1.3084   18.2911 C.ar    1  UNL1        0.0115
     19 C           6.6701   -2.0332   19.3905 C.ar    1  UNL1        0.0054
     20 C           1.5775   -0.1498   28.8370 C.3     1  UNL1        0.0744
     21 C           2.9941   -0.5909   28.6166 C.ar    1  UNL1        0.1481
     22 N           4.2075   -0.0334   29.2999 N.ar    1  UNL1       -0.1929
     23 S           5.4094   -0.7649   28.7798 S.2     1  UNL1        0.0369
     24 C           4.9388   -1.7744   27.7751 C.ar    1  UNL1        0.1652
     25 N           3.4461   -1.6669   27.6742 N.ar    1  UNL1       -0.2190
@<TRIPOS>BOND
     1    20    21    1
     2    21    22   ar
     3    22    23   ar
     4    23    24   ar
     5    24     1    1
     6     1     2   ar
     7     2     3   ar
     8     3     4   ar
     9     4     5   ar
    10     5     6    1
    11     6     7    1
    12     7     8    1
    13     8     9   am
    14     9    10    2
    15     9    13    1
    16    13    14   ar
    17    14    15   ar
    18    15    16   ar
    19    16    17    1
    20    16    18   ar
    21    18    19   ar
    22     8    11    1
    23    11    12    1
    24    24    25   ar
    25    25    21   ar
    26     5     1   ar
    27    19    13   ar
    28    11     4    1
@<TRIPOS>MOLECULE
*****
 25 28 0 0 0
SMALL
GASTEIGER

@<TRIPOS>ATOM
      1 C          -0.9598    2.1146   26.6398 C.ar    1  UNL1        0.1917
      2 N          -2.0040    3.1652   26.8758 N.ar    1  UNL1       -0.1268
      3 N          -2.2822    3.8442   25.5675 N.ar    1  UNL1       -0.1316
      4 C          -1.4099    3.2132   24.5230 C.ar    1  UNL1        0.1615
      5 N          -0.5926    2.1442   25.1857 N.ar    1  UNL1       -0.2940
      6 C           0.3803    1.3359   24.3796 C.3     1  UNL1        0.1302
      7 C           0.5360    1.5966   22.9105 C.3     1  UNL1        0.1186
      8 N          -0.2813    2.6656   22.2478 N.am    1  UNL1       -0.2688
      9 C          -0.1257    2.9263   20.7789 C.2     1  UNL1        0.2493
     10 O          -0.9430    3.9953   20.1162 O.2     1  UNL1       -0.2699
     11 C          -1.2543    3.4739   23.0541 C.3     1  UNL1        0.1343
     12 C          -2.0716    4.5429   22.3913 C.3     1  UNL1        0.0298
     13 C           0.8472    2.1179   19.9727 C.ar    1  UNL1        0.0536
     14 C           2.0788    2.7664   19.4134 C.ar    1  UNL1        0.0054
     15 C           3.0517    1.9580   18.6072 C.ar    1  UNL1        0.0115
     16 C           2.7931    0.5012   18.3603 C.ar    1  UNL1        0.0577
     17 CL          3.7661   -0.3072   17.5541 Cl      1  UNL1       -0.0822
     18 C           1.5616   -0.1472   18.9196 C.ar    1  UNL1        0.0115
     19 C           0.5886    0.6611   19.7258 C.ar    1  UNL1        0.0054
     20 C           2.4751   -0.5375   29.6479 C.3     1  UNL1        0.0744
     21 C           1.1951   -0.0234   29.0587 C.ar    1  UNL1        0.1481
     22 N          -0.1899   -0.4138   29.4824 N.ar    1  UNL1       -0.1929
     23 S          -1.1657    0.3397   28.6279 S.2     1  UNL1        0.0369
     24 C          -0.3838    1.1956   27.6760 C.ar    1  UNL1        0.1652
     25 N           1.0752    0.9712   27.9422 N.ar    1  UNL1       -0.2190
@<TRIPOS>BOND
     1    20    21    1
     2    21    22   ar
     3    22    23   ar
     4    23    24   ar
     5    24     1    1
     6     1     2   ar
     7     2     3   ar
     8     3     4   ar
     9     4     5   ar
    10     5     6    1
    11     6     7    1
    12     7     8    1
    13     8     9   am
    14     9    10    2
    15     9    13    1
    16    13    14   ar
    17    14    15   ar
    18    15    16   ar
    19    16    17    1
    20    16    18   ar
    21    18    19   ar
    22     8    11    1
    23    11    12    1
    24    24    25   ar
    25    25    21   ar
    26     5     1   ar
    27    19    13   ar
    28    11     4    1
@<TRIPOS>MOLECULE
*****
 25 28 0 0 0
SMALL
GASTEIGER

@<TRIPOS>ATOM
      1 C           1.0839    1.6891   30.8858 C.ar    1  UNL1        0.1917
      2 N           0.6999    2.5558   32.0482 N.ar    1  UNL1       -0.1268
      3 N           1.6650    2.2878   33.1648 N.ar    1  UNL1       -0.1316
      4 C           2.6454    1.2555   32.6925 C.ar    1  UNL1        0.1615
      5 N           2.2862    0.8855   31.2839 N.ar    1  UNL1       -0.2940
      6 C           3.1004   -0.1354   30.5458 C.3     1  UNL1        0.1302
      7 C           4.2738   -0.7864   31.2163 C.3     1  UNL1        0.1186
      8 N           4.6330   -0.4164   32.6249 N.am    1  UNL1       -0.2688
      9 C           5.8063   -1.0672   33.2954 C.2     1  UNL1        0.2493
     10 O           6.1654   -0.6972   34.7040 O.2     1  UNL1       -0.2699
     11 C           3.8187    0.6046   33.3630 C.3     1  UNL1        0.1343
     12 C           4.1778    0.9746   34.7716 C.3     1  UNL1        0.0298
     13 C           6.6205   -2.0881   32.5573 C.ar    1  UNL1        0.0536
     14 C           7.9182   -1.6926   31.9175 C.ar    1  UNL1        0.0054
     15 C           8.7324   -2.7135   31.1794 C.ar    1  UNL1        0.0115
     16 C           8.2489   -4.1300   31.0811 C.ar    1  UNL1        0.0577
     17 CL          9.0631   -5.1510   30.3430 Cl      1  UNL1       -0.0822
     18 C           6.9511   -4.5256   31.7209 C.ar    1  UNL1        0.0115
     19 C           6.1369   -3.5047   32.4590 C.ar    1  UNL1        0.0054
     20 C          -0.8657    3.0741   26.1782 C.3     1  UNL1        0.0744
     21 C          -0.5084    2.2721   27.3943 C.ar    1  UNL1        0.1481
     22 N          -0.8587    0.8337   27.6361 N.ar    1  UNL1       -0.1929
     23 S          -0.3048    0.4402   28.9735 S.2     1  UNL1        0.0369
     24 C           0.3877    1.6354   29.5582 C.ar    1  UNL1        0.1652
     25 N           0.2619    2.7676   28.5822 N.ar    1  UNL1       -0.2190
@<TRIPOS>BOND
     1    20    21    1
     2    21    22   ar
     3    22    23   ar
     4    23    24   ar
     5    24     1    1
     6     1     2   ar
     7     2     3   ar
     8     3     4   ar
     9     4     5   ar
    10     5     6    1
    11     6     7    1
    12     7     8    1
    13     8     9   am
    14     9    10    2
    15     9    13    1
    16    13    14   ar
    17    14    15   ar
    18    15    16   ar
    19    16    17    1
    20    16    18   ar
    21    18    19   ar
    22     8    11    1
    23    11    12    1
    24    24    25   ar
    25    25    21   ar
    26     5     1   ar
    27    19    13   ar
    28    11     4    1
@<TRIPOS>MOLECULE
*****
 25 28 0 0 0
SMALL
GASTEIGER

@<TRIPOS>ATOM
      1 C           6.6555   -3.4659   24.6218 C.ar    1  UNL1        0.1917
      2 N           7.3462   -4.6732   24.0603 N.ar    1  UNL1       -0.1268
      3 N           6.9112   -4.8343   22.6338 N.ar    1  UNL1       -0.1316
      4 C           5.9518   -3.7266   22.3137 C.ar    1  UNL1        0.1615
      5 N           5.7937   -2.8808   23.5424 N.ar    1  UNL1       -0.2940
      6 C           4.8855   -1.6873   23.5197 C.3     1  UNL1        0.1302
      7 C           4.1353   -1.3395   22.2681 C.3     1  UNL1        0.1186
      8 N           4.2934   -2.1852   21.0394 N.am    1  UNL1       -0.2688
      9 C           3.5432   -1.8374   19.7879 C.2     1  UNL1        0.2493
     10 O           3.7013   -2.6832   18.5592 O.2     1  UNL1       -0.2699
     11 C           5.2016   -3.3788   21.0622 C.3     1  UNL1        0.1343
     12 C           5.3597   -4.2245   19.8335 C.3     1  UNL1        0.0298
     13 C           2.6350   -0.6439   19.7651 C.ar    1  UNL1        0.0536
     14 C           1.2136   -0.7741   20.2261 C.ar    1  UNL1        0.0054
     15 C           0.3053    0.4195   20.2033 C.ar    1  UNL1        0.0115
     16 C           0.8186    1.7433   19.7195 C.ar    1  UNL1        0.0577
     17 CL         -0.0897    2.9369   19.6967 Cl      1  UNL1       -0.0822
     18 C           2.2400    1.8736   19.2585 C.ar    1  UNL1        0.0115
     19 C           3.1482    0.6800   19.2813 C.ar    1  UNL1        0.0054
     20 C           5.5363   -1.4136   29.3564 C.3     1  UNL1        0.0744
     21 C           6.2865   -1.9932   28.1940 C.ar    1  UNL1        0.1481
     22 N           7.7632   -2.2506   28.1378 N.ar    1  UNL1       -0.1929
     23 S           8.0812   -2.8336   26.7927 S.2     1  UNL1        0.0369
     24 C           6.8010   -2.9365   26.0178 C.ar    1  UNL1        0.1652
     25 N           5.6918   -2.4171   26.8838 N.ar    1  UNL1       -0.2190
@<TRIPOS>BOND
     1    20    21    1
     2    21    22   ar
     3    22    23   ar
     4    23    24   ar
     5    24     1    1
     6     1     2   ar
     7     2     3   ar
     8     3     4   ar
     9     4     5   ar
    10     5     6    1
    11     6     7    1
    12     7     8    1
    13     8     9   am
    14     9    10    2
    15     9    13    1
    16    13    14   ar
    17    14    15   ar
    18    15    16   ar
    19    16    17    1
    20    16    18   ar
    21    18    19   ar
    22     8    11    1
    23    11    12    1
    24    24    25   ar
    25    25    21   ar
    26     5     1   ar
    27    19    13   ar
    28    11     4    1
@<TRIPOS>MOLECULE
*****
 25 28 0 0 0
SMALL
GASTEIGER

@<TRIPOS>ATOM
      1 C           2.2894   -0.1505   19.3646 C.ar    1  UNL1        0.1917
      2 N           1.5135    0.5369   18.2805 N.ar    1  UNL1       -0.1268
      3 N           0.5818    1.5180   18.9281 N.ar    1  UNL1       -0.1316
      4 C           0.7820    1.4369   20.4125 C.ar    1  UNL1        0.1615
      5 N           1.8374    0.4057   20.6823 N.ar    1  UNL1       -0.2940
      6 C           2.2503    0.1064   22.0929 C.3     1  UNL1        0.1302
      7 C           1.6079    0.8384   23.2338 C.3     1  UNL1        0.1186
      8 N           0.5526    1.8696   22.9640 N.am    1  UNL1       -0.2688
      9 C          -0.0898    2.6016   24.1048 C.2     1  UNL1        0.2493
     10 O          -1.1452    3.6328   23.8351 O.2     1  UNL1       -0.2699
     11 C           0.1396    2.1689   21.5533 C.3     1  UNL1        0.1343
     12 C          -0.9158    3.2001   21.2835 C.3     1  UNL1        0.0298
     13 C           0.3232    2.3023   25.5154 C.ar    1  UNL1        0.0536
     14 C           1.4835    3.0296   26.1275 C.ar    1  UNL1        0.0054
     15 C           1.8965    2.7303   27.5382 C.ar    1  UNL1        0.0115
     16 C           1.1491    1.7038   28.3367 C.ar    1  UNL1        0.0577
     17 CL          1.5621    1.4045   29.7474 Cl      1  UNL1       -0.0822
     18 C          -0.0112    0.9765   27.7246 C.ar    1  UNL1        0.0115
     19 C          -0.4242    1.2757   26.3140 C.ar    1  UNL1        0.0054
     20 C           4.6735   -4.8476   18.9975 C.3     1  UNL1        0.0744
     21 C           4.4299   -3.3675   18.9973 C.ar    1  UNL1        0.1481
     22 N           5.4534   -2.3056   18.7235 N.ar    1  UNL1       -0.1929
     23 S           4.7761   -0.9712   18.8278 S.2     1  UNL1        0.0369
     24 C           3.3341   -1.2085   19.1660 C.ar    1  UNL1        0.1652
     25 N           3.1201   -2.6895   19.2707 N.ar    1  UNL1       -0.2190
@<TRIPOS>BOND
     1    20    21    1
     2    21    22   ar
     3    22    23   ar
     4    23    24   ar
     5    24     1    1
     6     1     2   ar
     7     2     3   ar
     8     3     4   ar
     9     4     5   ar
    10     5     6    1
    11     6     7    1
    12     7     8    1
    13     8     9   am
    14     9    10    2
    15     9    13    1
    16    13    14   ar
    17    14    15   ar
    18    15    16   ar
    19    16    17    1
    20    16    18   ar
    21    18    19   ar
    22     8    11    1
    23    11    12    1
    24    24    25   ar
    25    25    21   ar
    26     5     1   ar
    27    19    13   ar
    28    11     4    1
@<TRIPOS>MOLECULE
*****
 25 28 0 0 0
SMALL
GASTEIGER

@<TRIPOS>ATOM
      1 C          -0.2514    1.7908   26.1240 C.ar    1  UNL1        0.1917
      2 N          -1.2382    2.9088   25.9624 N.ar    1  UNL1       -0.1268
      3 N          -1.2049    3.3530   24.5301 N.ar    1  UNL1       -0.1316
      4 C          -0.1974    2.5096   23.8065 C.ar    1  UNL1        0.1615
      5 N           0.3919    1.5440   24.7916 N.ar    1  UNL1       -0.2940
      6 C           1.4382    0.5650   24.3481 C.3     1  UNL1        0.1302
      7 C           1.8951    0.5514   22.9194 C.3     1  UNL1        0.1186
      8 N           1.3058    1.5169   21.9343 N.am    1  UNL1       -0.2688
      9 C           1.7627    1.5034   20.5057 C.2     1  UNL1        0.2493
     10 O           1.1734    2.4689   19.5206 O.2     1  UNL1       -0.2699
     11 C           0.2595    2.4960   22.3779 C.3     1  UNL1        0.1343
     12 C          -0.3298    3.4616   21.3928 C.3     1  UNL1        0.0298
     13 C           2.8089    0.5243   20.0622 C.ar    1  UNL1        0.0536
     14 C           2.4406   -0.9100   19.8229 C.ar    1  UNL1        0.0054
     15 C           3.4869   -1.8891   19.3794 C.ar    1  UNL1        0.0115
     16 C           4.9015   -1.4339   19.1751 C.ar    1  UNL1        0.0577
     17 CL          5.9478   -2.4130   18.7316 Cl      1  UNL1       -0.0822
     18 C           5.2698    0.0003   19.4144 C.ar    1  UNL1        0.0115
     19 C           4.2236    0.9794   19.8579 C.ar    1  UNL1        0.0054
     20 C           2.3274   -0.5598   30.0870 C.3     1  UNL1        0.0744
     21 C           1.2263   -0.0309   29.2165 C.ar    1  UNL1        0.1481
     22 N          -0.2446   -0.1511   29.4848 N.ar    1  UNL1       -0.1929
     23 S          -0.9772    0.5166   28.3589 S.2     1  UNL1        0.0369
     24 C           0.0410    1.0496   27.3949 C.ar    1  UNL1        0.1652
     25 N           1.4028    0.7112   27.9249 N.ar    1  UNL1       -0.2190
@<TRIPOS>BOND
     1    20    21    1
     2    21    22   ar
     3    22    23   ar
     4    23    24   ar
     5    24     1    1
     6     1     2   ar
     7     2     3   ar
     8     3     4   ar
     9     4     5   ar
    10     5     6    1
    11     6     7    1
    12     7     8    1
    13     8     9   am
    14     9    10    2
    15     9    13    1
    16    13    14   ar
    17    14    15   ar
    18    15    16   ar
    19    16    17    1
    20    16    18   ar
    21    18    19   ar
    22     8    11    1
    23    11    12    1
    24    24    25   ar
    25    25    21   ar
    26     5     1   ar
    27    19    13   ar
    28    11     4    1
