@<TRIPOS>MOLECULE
*****
 31 33 0 0 0
SMALL
GASTEIGER

@<TRIPOS>ATOM
      1 C          -3.0464  -19.9860   20.5149 C.3     1  UNL1        0.0898
      2 O          -5.0068  -19.6920   22.7666 O.2     1  UNL1       -0.2684
      3 C          -5.4653  -19.5327   21.3473 C.2     1  UNL1        0.2669
      4 N          -4.4851  -19.6797   20.2215 N.am    1  UNL1       -0.2995
      5 H          -4.7861  -19.5751   19.2900 H       1  UNL1        0.1498
      6 C          -6.9041  -19.2263   21.0539 C.ar    1  UNL1        0.1761
      7 C          -7.9814  -18.9940   22.0716 C.ar    1  UNL1        0.0672
      8 C          -9.2613  -18.7226   21.3380 C.ar    1  UNL1        0.1770
      9 O          -8.9751  -18.7872   19.8670 O.2     1  UNL1       -0.3533
     10 N          -7.5183  -19.0985   19.6914 N.ar    1  UNL1       -0.0723
     11 C         -10.5935  -18.4369   21.9653 C.ar    1  UNL1        0.0372
     12 C         -10.8262  -18.7595   23.4117 C.ar    1  UNL1        0.0031
     13 C         -12.1584  -18.4737   24.0390 C.ar    1  UNL1        0.0001
     14 C         -13.2579  -17.8653   23.2200 C.ar    1  UNL1        0.0000
     15 C         -13.0253  -17.5427   21.7736 C.ar    1  UNL1        0.0001
     16 C         -11.6931  -17.8285   21.1463 C.ar    1  UNL1        0.0031
     17 C          -2.0755  -18.8682   20.7557 C.3     1  UNL1        0.0230
     18 C          -2.0500  -18.1698   22.0829 C.3     1  UNL1        0.0230
     19 C          -2.8202  -16.8971   22.2755 C.3     1  UNL1        0.0898
     20 N          -3.9170  -16.8315   23.2968 N.am    1  UNL1       -0.3007
     21 C          -4.7057  -15.5674   23.4701 C.2     1  UNL1        0.2504
     22 O          -4.3976  -14.3690   22.6223 O.2     1  UNL1       -0.2700
     23 H          -4.1192  -17.6180   23.8533 H       1  UNL1        0.1497
     24 C          -5.8024  -15.5017   24.4914 C.ar    1  UNL1        0.1062
     25 C          -5.4954  -15.7488   25.9386 C.ar    1  UNL1        0.0108
     26 C          -6.5921  -15.6831   26.9598 C.ar    1  UNL1        0.0210
     27 C          -7.9959  -15.3704   26.5337 C.ar    1  UNL1        0.1021
     28 N          -8.3030  -15.1233   25.0864 N.ar    1  UNL1       -0.2102
     29 C          -7.2062  -15.1890   24.0652 C.ar    1  UNL1        0.2260
     30 O          -7.5132  -14.9419   22.6179 O.3     1  UNL1       -0.4919
     31 H          -8.3901  -14.7465   22.3517 H       1  UNL1        0.2938
@<TRIPOS>BOND
     1     2     3    2
     2     3     4   am
     3     4     1    1
     4     1    17    1
     5    17    18    1
     6    18    19    1
     7    19    20    1
     8    20    21   am
     9    21    22    2
    10    21    24    1
    11    24    25   ar
    12    25    26   ar
    13    26    27   ar
    14    27    28   ar
    15    28    29   ar
    16    29    30    1
    17     3     6    1
    18     6     7   ar
    19     7     8   ar
    20     8    11    1
    21    11    12   ar
    22    12    13   ar
    23    13    14   ar
    24    14    15   ar
    25    15    16   ar
    26     8     9   ar
    27     9    10   ar
    28    29    24   ar
    29    10     6   ar
    30    16    11   ar
    31     4     5    1
    32    20    23    1
    33    30    31    1
@<TRIPOS>MOLECULE
*****
 31 33 0 0 0
SMALL
GASTEIGER

@<TRIPOS>ATOM
      1 C         -11.4078  -19.3142   21.4208 C.3     1  UNL1        0.0898
      2 O          -9.3160  -18.8594   19.3191 O.2     1  UNL1       -0.2684
      3 C          -8.9100  -19.2516   20.7089 C.2     1  UNL1        0.2669
      4 N          -9.9559  -19.4790   21.7597 N.am    1  UNL1       -0.2995
      5 H          -9.6895  -19.7364   22.6718 H       1  UNL1        0.1498
      6 C          -7.4581  -19.4164   21.0477 C.ar    1  UNL1        0.1761
      7 C          -6.3030  -18.8473   20.2782 C.ar    1  UNL1        0.0672
      8 C          -5.0374  -19.2583   20.9704 C.ar    1  UNL1        0.1770
      9 O          -5.4103  -20.0815   22.1678 O.2     1  UNL1       -0.3533
     10 N          -6.9063  -20.1791   22.2155 N.ar    1  UNL1       -0.0723
     11 C          -3.6437  -18.9078   20.5408 C.ar    1  UNL1        0.0372
     12 C          -3.4058  -18.2985   19.1909 C.ar    1  UNL1        0.0031
     13 C          -2.0121  -17.9480   18.7613 C.ar    1  UNL1        0.0001
     14 C          -0.8562  -18.2068   19.6816 C.ar    1  UNL1        0.0000
     15 C          -1.0940  -18.8162   21.0314 C.ar    1  UNL1        0.0001
     16 C          -2.4877  -19.1667   21.4611 C.ar    1  UNL1        0.0031
     17 C         -12.1714  -18.1348   21.9461 C.3     1  UNL1        0.0230
     18 C         -11.9921  -16.7848   21.3174 C.3     1  UNL1        0.0230
     19 C         -10.6834  -16.0638   21.4497 C.3     1  UNL1        0.0898
     20 N         -10.0389  -15.9204   22.7966 N.am    1  UNL1       -0.3007
     21 C          -8.5443  -15.8662   22.9110 C.2     1  UNL1        0.2504
     22 O          -7.6941  -15.9554   21.6784 O.2     1  UNL1       -0.2700
     23 H         -10.5969  -15.8618   23.6056 H       1  UNL1        0.1497
     24 C          -7.8998  -15.7228   24.2579 C.ar    1  UNL1        0.1062
     25 C          -8.6337  -16.1598   25.4909 C.ar    1  UNL1        0.0108
     26 C          -7.9892  -16.0164   26.8377 C.ar    1  UNL1        0.0210
     27 C          -6.6108  -15.4360   26.9516 C.ar    1  UNL1        0.1021
     28 N          -5.8768  -14.9989   25.7186 N.ar    1  UNL1       -0.2102
     29 C          -6.5213  -15.1424   24.3717 C.ar    1  UNL1        0.2260
     30 O          -5.7874  -14.7053   23.1387 O.3     1  UNL1       -0.4919
     31 H          -4.9263  -14.3427   23.2098 H       1  UNL1        0.2938
@<TRIPOS>BOND
     1     2     3    2
     2     3     4   am
     3     4     1    1
     4     1    17    1
     5    17    18    1
     6    18    19    1
     7    19    20    1
     8    20    21   am
     9    21    22    2
    10    21    24    1
    11    24    25   ar
    12    25    26   ar
    13    26    27   ar
    14    27    28   ar
    15    28    29   ar
    16    29    30    1
    17     3     6    1
    18     6     7   ar
    19     7     8   ar
    20     8    11    1
    21    11    12   ar
    22    12    13   ar
    23    13    14   ar
    24    14    15   ar
    25    15    16   ar
    26     8     9   ar
    27     9    10   ar
    28    29    24   ar
    29    10     6   ar
    30    16    11   ar
    31     4     5    1
    32    20    23    1
    33    30    31    1
@<TRIPOS>MOLECULE
*****
 31 33 0 0 0
SMALL
GASTEIGER

@<TRIPOS>ATOM
      1 C         -11.0144  -18.6264   19.6710 C.3     1  UNL1        0.0898
      2 O          -9.9700  -19.8421   22.2069 O.2     1  UNL1       -0.2684
      3 C          -9.0135  -19.3596   21.1570 C.2     1  UNL1        0.2669
      4 N          -9.5357  -18.7518   19.8890 N.am    1  UNL1       -0.2995
      5 H          -8.9079  -18.4351   19.2000 H       1  UNL1        0.1498
      6 C          -7.5347  -19.4850   21.3751 C.ar    1  UNL1        0.1761
      7 C          -6.4647  -18.7981   20.5793 C.ar    1  UNL1        0.0672
      8 C          -5.1350  -19.2079   21.1396 C.ar    1  UNL1        0.1770
      9 O          -5.3832  -20.1481   22.2818 O.2     1  UNL1       -0.3533
     10 N          -6.8663  -20.3193   22.4273 N.ar    1  UNL1       -0.0723
     11 C          -3.7928  -18.7567   20.6447 C.ar    1  UNL1        0.0372
     12 C          -2.6566  -18.5858   21.6090 C.ar    1  UNL1        0.0031
     13 C          -1.3144  -18.1346   21.1141 C.ar    1  UNL1        0.0001
     14 C          -1.1084  -17.8543   19.6550 C.ar    1  UNL1        0.0000
     15 C          -2.2447  -18.0252   18.6907 C.ar    1  UNL1        0.0001
     16 C          -3.5869  -18.4764   19.1856 C.ar    1  UNL1        0.0031
     17 C         -11.6740  -17.2819   19.7575 C.3     1  UNL1        0.0230
     18 C         -11.0003  -16.1620   20.4936 C.3     1  UNL1        0.0230
     19 C         -10.7889  -16.2586   21.9754 C.3     1  UNL1        0.0898
     20 N          -9.4686  -15.8694   22.5717 N.am    1  UNL1       -0.3007
     21 C          -9.0327  -16.4609   23.8794 C.2     1  UNL1        0.2504
     22 O          -9.9170  -17.4416   24.5908 O.2     1  UNL1       -0.2700
     23 H          -8.8882  -15.2258   22.1047 H       1  UNL1        0.1497
     24 C          -7.7124  -16.0717   24.4756 C.ar    1  UNL1        0.1062
     25 C          -6.4972  -15.9661   23.6027 C.ar    1  UNL1        0.0108
     26 C          -5.1770  -15.5770   24.1990 C.ar    1  UNL1        0.0210
     27 C          -5.0721  -15.2934   25.6682 C.ar    1  UNL1        0.1021
     28 N          -6.2873  -15.3990   26.5411 N.ar    1  UNL1       -0.2102
     29 C          -7.6075  -15.7881   25.9448 C.ar    1  UNL1        0.2260
     30 O          -8.8228  -15.8938   26.8178 O.3     1  UNL1       -0.4919
     31 H          -8.7572  -15.7166   27.7355 H       1  UNL1        0.2938
@<TRIPOS>BOND
     1     2     3    2
     2     3     4   am
     3     4     1    1
     4     1    17    1
     5    17    18    1
     6    18    19    1
     7    19    20    1
     8    20    21   am
     9    21    22    2
    10    21    24    1
    11    24    25   ar
    12    25    26   ar
    13    26    27   ar
    14    27    28   ar
    15    28    29   ar
    16    29    30    1
    17     3     6    1
    18     6     7   ar
    19     7     8   ar
    20     8    11    1
    21    11    12   ar
    22    12    13   ar
    23    13    14   ar
    24    14    15   ar
    25    15    16   ar
    26     8     9   ar
    27     9    10   ar
    28    29    24   ar
    29    10     6   ar
    30    16    11   ar
    31     4     5    1
    32    20    23    1
    33    30    31    1
@<TRIPOS>MOLECULE
*****
 31 33 0 0 0
SMALL
GASTEIGER

@<TRIPOS>ATOM
      1 C          -5.0949  -15.4562   24.6603 C.3     1  UNL1        0.0898
      2 O          -3.4991  -17.9838   24.4076 O.2     1  UNL1       -0.2684
      3 C          -4.5975  -17.6893   23.4295 C.2     1  UNL1        0.2669
      4 N          -5.3954  -16.4255   23.5558 N.am    1  UNL1       -0.2995
      5 H          -6.1164  -16.2323   22.9139 H       1  UNL1        0.1498
      6 C          -4.8980  -18.6588   22.3249 C.ar    1  UNL1        0.1761
      7 C          -6.2182  -18.8248   21.6324 C.ar    1  UNL1        0.0672
      8 C          -6.0673  -19.9010   20.5985 C.ar    1  UNL1        0.1770
      9 O          -4.6537  -20.4001   20.6520 O.2     1  UNL1       -0.3533
     10 N          -3.9311  -19.6324   21.7190 N.ar    1  UNL1       -0.0723
     11 C          -7.1413  -20.3919   19.6735 C.ar    1  UNL1        0.0372
     12 C          -6.9980  -21.7232   18.9974 C.ar    1  UNL1        0.0031
     13 C          -8.0719  -22.2141   18.0725 C.ar    1  UNL1        0.0001
     14 C          -9.2892  -21.3737   17.8236 C.ar    1  UNL1        0.0000
     15 C          -9.4325  -20.0423   18.4997 C.ar    1  UNL1        0.0001
     16 C          -8.3585  -19.5515   19.4246 C.ar    1  UNL1        0.0031
     17 C          -5.5807  -15.7313   26.0526 C.3     1  UNL1        0.0230
     18 C          -6.9027  -15.1874   26.5069 C.3     1  UNL1        0.0230
     19 C          -8.1622  -15.9565   26.2386 C.3     1  UNL1        0.0898
     20 N          -8.8542  -15.8241   24.9143 N.am    1  UNL1       -0.3007
     21 C          -9.5985  -16.9914   24.3370 C.2     1  UNL1        0.2504
     22 O          -9.6509  -18.2912   25.0839 O.2     1  UNL1       -0.2700
     23 H          -8.8198  -14.9710   24.4240 H       1  UNL1        0.1497
     24 C         -10.2904  -16.8591   23.0127 C.ar    1  UNL1        0.1062
     25 C         -11.7294  -17.2594   22.8750 C.ar    1  UNL1        0.0108
     26 C         -12.4213  -17.1270   21.5508 C.ar    1  UNL1        0.0210
     27 C         -11.6742  -16.5943   20.3641 C.ar    1  UNL1        0.1021
     28 N         -10.2352  -16.1940   20.5018 N.ar    1  UNL1       -0.2102
     29 C          -9.5433  -16.3264   21.8261 C.ar    1  UNL1        0.2260
     30 O          -8.1042  -15.9261   21.9638 O.3     1  UNL1       -0.4919
     31 H          -7.6375  -15.5933   21.2225 H       1  UNL1        0.2938
@<TRIPOS>BOND
     1     2     3    2
     2     3     4   am
     3     4     1    1
     4     1    17    1
     5    17    18    1
     6    18    19    1
     7    19    20    1
     8    20    21   am
     9    21    22    2
    10    21    24    1
    11    24    25   ar
    12    25    26   ar
    13    26    27   ar
    14    27    28   ar
    15    28    29   ar
    16    29    30    1
    17     3     6    1
    18     6     7   ar
    19     7     8   ar
    20     8    11    1
    21    11    12   ar
    22    12    13   ar
    23    13    14   ar
    24    14    15   ar
    25    15    16   ar
    26     8     9   ar
    27     9    10   ar
    28    29    24   ar
    29    10     6   ar
    30    16    11   ar
    31     4     5    1
    32    20    23    1
    33    30    31    1
@<TRIPOS>MOLECULE
*****
 31 33 0 0 0
SMALL
GASTEIGER

@<TRIPOS>ATOM
      1 C         -10.8862  -16.5727   23.4257 C.3     1  UNL1        0.0898
      2 O          -9.2127  -15.2849   25.5565 O.2     1  UNL1       -0.2684
      3 C          -8.5548  -15.9163   24.3655 C.2     1  UNL1        0.2669
      4 N          -9.3916  -16.5602   23.3001 N.am    1  UNL1       -0.2995
      5 H          -8.9598  -16.9746   22.5184 H       1  UNL1        0.1498
      6 C          -7.0601  -15.9038   24.2400 C.ar    1  UNL1        0.1761
      7 C          -6.2498  -16.7136   23.2717 C.ar    1  UNL1        0.0672
      8 C          -4.8022  -16.3896   23.4939 C.ar    1  UNL1        0.1770
      9 O          -4.7178  -15.3794   24.5996 O.2     1  UNL1       -0.3533
     10 N          -6.1133  -15.0792   25.0607 N.ar    1  UNL1       -0.0723
     11 C          -3.6426  -16.9732   22.7424 C.ar    1  UNL1        0.0372
     12 C          -2.6921  -16.0716   22.0119 C.ar    1  UNL1        0.0031
     13 C          -1.5325  -16.6552   21.2605 C.ar    1  UNL1        0.0001
     14 C          -1.3235  -18.1404   21.2394 C.ar    1  UNL1        0.0000
     15 C          -2.2740  -19.0420   21.9699 C.ar    1  UNL1        0.0001
     16 C          -3.4336  -18.4584   22.7214 C.ar    1  UNL1        0.0031
     17 C         -11.7296  -15.8473   22.4194 C.3     1  UNL1        0.0230
     18 C         -12.4312  -16.6132   21.3373 C.3     1  UNL1        0.0230
     19 C         -11.6879  -17.0093   20.0961 C.3     1  UNL1        0.0898
     20 N         -10.2816  -17.5217   20.1954 N.am    1  UNL1       -0.3007
     21 C         -10.0191  -18.8882   20.7554 C.2     1  UNL1        0.2504
     22 O         -11.1628  -19.7424   21.2161 O.2     1  UNL1       -0.2700
     23 H          -9.5310  -16.9611   19.8930 H       1  UNL1        0.1497
     24 C          -8.6128  -19.4006   20.8547 C.ar    1  UNL1        0.1062
     25 C          -7.7749  -19.5362   19.6179 C.ar    1  UNL1        0.0108
     26 C          -6.3687  -20.0486   19.7173 C.ar    1  UNL1        0.0210
     27 C          -5.8003  -20.4254   21.0533 C.ar    1  UNL1        0.1021
     28 N          -6.6382  -20.2899   22.2900 N.ar    1  UNL1       -0.2102
     29 C          -8.0445  -19.7775   22.1907 C.ar    1  UNL1        0.2260
     30 O          -8.8824  -19.6419   23.4275 O.3     1  UNL1       -0.4919
     31 H          -8.5274  -19.8772   24.2620 H       1  UNL1        0.2938
@<TRIPOS>BOND
     1     2     3    2
     2     3     4   am
     3     4     1    1
     4     1    17    1
     5    17    18    1
     6    18    19    1
     7    19    20    1
     8    20    21   am
     9    21    22    2
    10    21    24    1
    11    24    25   ar
    12    25    26   ar
    13    26    27   ar
    14    27    28   ar
    15    28    29   ar
    16    29    30    1
    17     3     6    1
    18     6     7   ar
    19     7     8   ar
    20     8    11    1
    21    11    12   ar
    22    12    13   ar
    23    13    14   ar
    24    14    15   ar
    25    15    16   ar
    26     8     9   ar
    27     9    10   ar
    28    29    24   ar
    29    10     6   ar
    30    16    11   ar
    31     4     5    1
    32    20    23    1
    33    30    31    1
@<TRIPOS>MOLECULE
*****
 31 33 0 0 0
SMALL
GASTEIGER

@<TRIPOS>ATOM
      1 C           7.6887   -6.3392   27.8922 C.3     1  UNL1        0.0898
      2 O           8.6910   -3.9837   26.3279 O.2     1  UNL1       -0.2684
      3 C           7.6729   -4.9059   25.7254 C.2     1  UNL1        0.2669
      4 N           7.1717   -6.0836   26.5075 N.am    1  UNL1       -0.2995
      5 H           6.5035   -6.6888   26.1120 H       1  UNL1        0.1498
      6 C           7.1559   -4.6502   24.3406 C.ar    1  UNL1        0.1761
      7 C           5.9891   -3.7784   23.9821 C.ar    1  UNL1        0.0672
      8 C           5.8270   -3.8109   22.4912 C.ar    1  UNL1        0.1770
      9 O           6.8937   -4.7028   21.9284 O.2     1  UNL1       -0.3533
     10 N           7.7149   -5.2215   23.0713 N.ar    1  UNL1       -0.0723
     11 C           4.7818   -3.0799   21.7019 C.ar    1  UNL1        0.0372
     12 C           4.3494   -3.6034   20.3643 C.ar    1  UNL1        0.0031
     13 C           3.3042   -2.8724   19.5750 C.ar    1  UNL1        0.0001
     14 C           2.6914   -1.6178   20.1231 C.ar    1  UNL1        0.0000
     15 C           3.1238   -1.0942   21.4606 C.ar    1  UNL1        0.0001
     16 C           4.1690   -1.8253   22.2500 C.ar    1  UNL1        0.0031
     17 C           8.3747   -7.6349   28.2093 C.3     1  UNL1        0.0230
     18 C           8.2473   -8.7998   27.2731 C.3     1  UNL1        0.0230
     19 C           7.9378  -10.1649   27.8122 C.3     1  UNL1        0.0898
     20 N           6.5215  -10.6586   27.8358 N.am    1  UNL1       -0.3007
     21 C           6.2338  -12.0971   28.1489 C.2     1  UNL1        0.2504
     22 O           7.3623  -13.0419   28.4384 O.2     1  UNL1       -0.2700
     23 H           5.7808  -10.0385   27.6458 H       1  UNL1        0.1497
     24 C           4.8175  -12.5908   28.1725 C.ar    1  UNL1        0.1062
     25 C           3.8947  -12.1696   29.2774 C.ar    1  UNL1        0.0108
     26 C           2.4785  -12.6633   29.3009 C.ar    1  UNL1        0.0210
     27 C           1.9851  -13.5782   28.2195 C.ar    1  UNL1        0.1021
     28 N           2.9079  -13.9994   27.1146 N.ar    1  UNL1       -0.2102
     29 C           4.3241  -13.5057   27.0910 C.ar    1  UNL1        0.2260
     30 O           5.2470  -13.9269   25.9860 O.3     1  UNL1       -0.4919
     31 H           4.9388  -14.4984   25.3105 H       1  UNL1        0.2938
@<TRIPOS>BOND
     1     2     3    2
     2     3     4   am
     3     4     1    1
     4     1    17    1
     5    17    18    1
     6    18    19    1
     7    19    20    1
     8    20    21   am
     9    21    22    2
    10    21    24    1
    11    24    25   ar
    12    25    26   ar
    13    26    27   ar
    14    27    28   ar
    15    28    29   ar
    16    29    30    1
    17     3     6    1
    18     6     7   ar
    19     7     8   ar
    20     8    11    1
    21    11    12   ar
    22    12    13   ar
    23    13    14   ar
    24    14    15   ar
    25    15    16   ar
    26     8     9   ar
    27     9    10   ar
    28    29    24   ar
    29    10     6   ar
    30    16    11   ar
    31     4     5    1
    32    20    23    1
    33    30    31    1
@<TRIPOS>MOLECULE
*****
 31 33 0 0 0
SMALL
GASTEIGER

@<TRIPOS>ATOM
      1 C          -9.3925   -5.9382   19.2370 C.3     1  UNL1        0.0898
      2 O          -9.1831   -4.1322   16.8507 O.2     1  UNL1       -0.2684
      3 C         -10.1173   -3.7875   17.9725 C.2     1  UNL1        0.2669
      4 N         -10.2220   -4.6905   19.1656 N.am    1  UNL1       -0.2995
      5 H         -10.8352   -4.4642   19.9019 H       1  UNL1        0.1498
      6 C         -10.9469   -2.5397   17.9011 C.ar    1  UNL1        0.1761
      7 C         -12.2327   -2.2928   18.6330 C.ar    1  UNL1        0.0672
      8 C         -12.7168   -0.9204   18.2696 C.ar    1  UNL1        0.1770
      9 O         -11.7301   -0.3191   17.3130 O.2     1  UNL1       -0.3533
     10 N         -10.6362   -1.3199   17.0853 N.ar    1  UNL1       -0.0723
     11 C         -13.9678   -0.2644   18.7741 C.ar    1  UNL1        0.0372
     12 C         -15.0252   -1.0859   19.4502 C.ar    1  UNL1        0.0031
     13 C         -16.2762   -0.4299   19.9547 C.ar    1  UNL1        0.0001
     14 C         -16.4699    1.0476   19.7831 C.ar    1  UNL1        0.0000
     15 C         -15.4125    1.8691   19.1069 C.ar    1  UNL1        0.0001
     16 C         -14.1615    1.2131   18.6024 C.ar    1  UNL1        0.0031
     17 C         -10.0321   -7.2775   19.0197 C.3     1  UNL1        0.0230
     18 C         -10.5223   -7.6620   17.6553 C.3     1  UNL1        0.0230
     19 C         -11.7145   -6.9698   17.0641 C.3     1  UNL1        0.0898
     20 N         -13.0983   -7.3722   17.4803 N.am    1  UNL1       -0.3007
     21 C         -13.7784   -6.6592   18.6112 C.2     1  UNL1        0.2504
     22 O         -13.0748   -5.5438   19.3259 O.2     1  UNL1       -0.2700
     23 H         -13.5601   -8.1043   17.0112 H       1  UNL1        0.1497
     24 C         -15.1623   -7.0616   19.0274 C.ar    1  UNL1        0.1062
     25 C         -16.2210   -6.0167   19.2206 C.ar    1  UNL1        0.0108
     26 C         -17.6047   -6.4192   19.6368 C.ar    1  UNL1        0.0210
     27 C         -17.9297   -7.8664   19.8599 C.ar    1  UNL1        0.1021
     28 N         -16.8710   -8.9113   19.6667 N.ar    1  UNL1       -0.2102
     29 C         -15.4873   -8.5089   19.2505 C.ar    1  UNL1        0.2260
     30 O         -14.4285   -9.5537   19.0573 O.3     1  UNL1       -0.4919
     31 H         -14.6315  -10.4578   19.1966 H       1  UNL1        0.2938
@<TRIPOS>BOND
     1     2     3    2
     2     3     4   am
     3     4     1    1
     4     1    17    1
     5    17    18    1
     6    18    19    1
     7    19    20    1
     8    20    21   am
     9    21    22    2
    10    21    24    1
    11    24    25   ar
    12    25    26   ar
    13    26    27   ar
    14    27    28   ar
    15    28    29   ar
    16    29    30    1
    17     3     6    1
    18     6     7   ar
    19     7     8   ar
    20     8    11    1
    21    11    12   ar
    22    12    13   ar
    23    13    14   ar
    24    14    15   ar
    25    15    16   ar
    26     8     9   ar
    27     9    10   ar
    28    29    24   ar
    29    10     6   ar
    30    16    11   ar
    31     4     5    1
    32    20    23    1
    33    30    31    1
@<TRIPOS>MOLECULE
*****
 31 33 0 0 0
SMALL
GASTEIGER

@<TRIPOS>ATOM
      1 C         -10.6537  -16.9558   21.8045 C.3     1  UNL1        0.0898
      2 O          -9.8202  -19.7973   22.2852 O.2     1  UNL1       -0.2684
      3 C          -8.9258  -18.8739   21.5123 C.2     1  UNL1        0.2669
      4 N          -9.3426  -17.4531   21.2719 N.am    1  UNL1       -0.2995
      5 H          -8.7556  -16.8470   20.7646 H       1  UNL1        0.1498
      6 C          -7.6147  -19.3712   20.9797 C.ar    1  UNL1        0.1761
      7 C          -6.3560  -18.5666   20.8436 C.ar    1  UNL1        0.0672
      8 C          -5.2954  -19.4585   20.2696 C.ar    1  UNL1        0.1770
      9 O          -5.8986  -20.8144   20.0508 O.2     1  UNL1       -0.3533
     10 N          -7.3319  -20.7604   20.4897 N.ar    1  UNL1       -0.0723
     11 C          -3.8802  -19.0639   19.9673 C.ar    1  UNL1        0.0372
     12 C          -3.6028  -17.8647   19.1099 C.ar    1  UNL1        0.0031
     13 C          -2.1875  -17.4701   18.8076 C.ar    1  UNL1        0.0001
     14 C          -1.0498  -18.2747   19.3628 C.ar    1  UNL1        0.0000
     15 C          -1.3272  -19.4738   20.2202 C.ar    1  UNL1        0.0001
     16 C          -2.7424  -19.8684   20.5224 C.ar    1  UNL1        0.0031
     17 C         -10.7481  -16.4525   23.2144 C.3     1  UNL1        0.0230
     18 C          -9.5481  -15.8408   23.8744 C.3     1  UNL1        0.0230
     19 C          -8.5736  -16.7099   24.6126 C.3     1  UNL1        0.0898
     20 N          -7.2306  -17.0068   24.0141 N.am    1  UNL1       -0.3007
     21 C          -6.0977  -16.0409   24.1973 C.2     1  UNL1        0.2504
     22 O          -6.3079  -14.7780   24.9790 O.2     1  UNL1       -0.2700
     23 H          -7.0926  -17.8357   23.5011 H       1  UNL1        0.1497
     24 C          -4.7547  -16.3378   23.5989 C.ar    1  UNL1        0.1062
     25 C          -4.0762  -17.6436   23.8894 C.ar    1  UNL1        0.0108
     26 C          -2.7332  -17.9405   23.2910 C.ar    1  UNL1        0.0210
     27 C          -2.0687  -16.9315   22.4020 C.ar    1  UNL1        0.1021
     28 N          -2.7471  -15.6256   22.1114 N.ar    1  UNL1       -0.2102
     29 C          -4.0901  -15.3288   22.7099 C.ar    1  UNL1        0.2260
     30 O          -4.7686  -14.0229   22.4193 O.3     1  UNL1       -0.4919
     31 H          -4.3535  -13.3926   21.8640 H       1  UNL1        0.2938
@<TRIPOS>BOND
     1     2     3    2
     2     3     4   am
     3     4     1    1
     4     1    17    1
     5    17    18    1
     6    18    19    1
     7    19    20    1
     8    20    21   am
     9    21    22    2
    10    21    24    1
    11    24    25   ar
    12    25    26   ar
    13    26    27   ar
    14    27    28   ar
    15    28    29   ar
    16    29    30    1
    17     3     6    1
    18     6     7   ar
    19     7     8   ar
    20     8    11    1
    21    11    12   ar
    22    12    13   ar
    23    13    14   ar
    24    14    15   ar
    25    15    16   ar
    26     8     9   ar
    27     9    10   ar
    28    29    24   ar
    29    10     6   ar
    30    16    11   ar
    31     4     5    1
    32    20    23    1
    33    30    31    1
