@<TRIPOS>MOLECULE
*****
 30 33 0 0 0
SMALL
GASTEIGER

@<TRIPOS>ATOM
      1 N          -6.5176  -18.9007   21.1481 N.am    1  UNL1       -0.2433
      2 C          -8.0066  -18.8010   21.2993 C.2     1  UNL1        0.3150
      3 O          -8.9065  -19.5990   20.4029 O.2     1  UNL1       -0.2516
      4 N          -8.5958  -17.9033   22.3467 N.am    1  UNL1       -0.2342
      5 C          -7.6959  -17.1053   23.2430 C.3     1  UNL1        0.1292
      6 C          -6.2067  -17.2050   23.0919 C.ar    1  UNL1        0.0308
      7 C          -5.3069  -16.4071   23.9882 C.ar    1  UNL1        0.0989
      8 N          -3.8179  -16.5068   23.8371 N.ar    1  UNL1       -0.2295
      9 C          -3.2287  -17.4044   22.7897 C.ar    1  UNL1        0.1317
     10 C          -4.1286  -18.2024   21.8933 C.ar    1  UNL1        0.0322
     11 C          -5.6176  -18.1028   22.0444 C.ar    1  UNL1        0.0536
     12 C          -3.2656  -18.9967   20.9582 C.3     1  UNL1        0.1157
     13 C          -1.8324  -18.6895   21.2767 C.2     1  UNL1        0.2317
     14 O          -0.6325  -19.2654   20.5847 O.2     1  UNL1       -0.2744
     15 N          -1.8095  -17.7055   22.4086 N.am    1  UNL1       -0.2693
     16 H          -1.0045  -17.3242   22.8277 H       1  UNL1        0.1563
     17 C         -10.0848  -17.8036   22.4978 C.ar    1  UNL1        0.1167
     18 C         -10.7536  -18.3604   23.7195 C.ar    1  UNL1        0.1898
     19 F          -9.9334  -19.0169   24.7902 F       1  UNL1       -0.1996
     20 C         -12.2427  -18.2607   23.8705 C.ar    1  UNL1        0.1704
     21 C         -13.0629  -17.6042   22.7999 C.ar    1  UNL1        0.0785
     22 C         -12.3940  -17.0475   21.5781 C.ar    1  UNL1        0.1704
     23 C         -10.9050  -17.1472   21.4271 C.ar    1  UNL1        0.1898
     24 F         -10.2361  -16.5904   20.2054 F       1  UNL1       -0.1996
     25 O         -12.9116  -18.8175   25.0923 O.3     1  UNL1       -0.4690
     26 C         -14.3314  -18.4479   25.4042 C.3     1  UNL1        0.2526
     27 O         -13.2142  -16.3910   20.5075 O.3     1  UNL1       -0.4690
     28 C         -12.5368  -15.7145   19.3526 C.3     1  UNL1        0.2526
     29 C          -5.9078  -21.2834   20.3110 C.3     1  UNL1        0.0237
     30 C          -5.9285  -19.7984   20.1007 C.3     1  UNL1        0.0998
@<TRIPOS>BOND
     1    29    30    1
     2    30     1    1
     3     1     2   am
     4     2     3    2
     5     2     4   am
     6     4    17    1
     7    17    18   ar
     8    18    19    1
     9    18    20   ar
    10    20    25    1
    11    25    26    1
    12    20    21   ar
    13    21    22   ar
    14    22    27    1
    15    27    28    1
    16    22    23   ar
    17    23    24    1
    18     4     5    1
    19     5     6    1
    20     6     7   ar
    21     7     8   ar
    22     8     9   ar
    23     9    10   ar
    24    10    11   ar
    25    10    12    1
    26    12    13    1
    27    13    14    2
    28    13    15   am
    29    11     1    1
    30    23    17   ar
    31    11     6   ar
    32    15     9    1
    33    15    16    1
@<TRIPOS>MOLECULE
*****
 30 33 0 0 0
SMALL
GASTEIGER

@<TRIPOS>ATOM
      1 N          -6.5083  -18.8842   21.1347 N.am    1  UNL1       -0.2433
      2 C          -7.9976  -18.7872   21.2852 C.2     1  UNL1        0.3150
      3 O          -8.8956  -19.5895   20.3909 O.2     1  UNL1       -0.2516
      4 N          -8.5888  -17.8879   22.3301 N.am    1  UNL1       -0.2342
      5 C          -7.6908  -17.0856   23.2244 C.3     1  UNL1        0.1292
      6 C          -6.2014  -17.1825   23.0739 C.ar    1  UNL1        0.0308
      7 C          -5.3034  -16.3803   23.9681 C.ar    1  UNL1        0.0989
      8 N          -3.8142  -16.4772   23.8176 N.ar    1  UNL1       -0.2295
      9 C          -3.2229  -17.3765   22.7728 C.ar    1  UNL1        0.1317
     10 C          -4.1210  -18.1789   21.8785 C.ar    1  UNL1        0.0322
     11 C          -5.6102  -18.0819   22.0290 C.ar    1  UNL1        0.0536
     12 C          -3.2561  -18.9739   20.9457 C.3     1  UNL1        0.1157
     13 C          -1.8236  -18.6629   21.2636 C.2     1  UNL1        0.2317
     14 O          -0.6224  -19.2381   20.5735 O.2     1  UNL1       -0.2744
     15 N          -1.8030  -17.6757   22.3928 N.am    1  UNL1       -0.2693
     16 H          -0.9988  -17.2915   22.8111 H       1  UNL1        0.1563
     17 C         -10.0781  -17.7909   22.4805 C.ar    1  UNL1        0.1167
     18 C         -10.8989  -17.1345   21.4103 C.ar    1  UNL1        0.1898
     19 F         -10.2305  -16.5750   20.1896 F       1  UNL1       -0.1996
     20 C         -12.3882  -17.0376   21.5609 C.ar    1  UNL1        0.1704
     21 C         -13.0567  -17.5971   22.7816 C.ar    1  UNL1        0.0785
     22 C         -12.2358  -18.2535   23.8518 C.ar    1  UNL1        0.1704
     23 C         -10.7465  -18.3504   23.7013 C.ar    1  UNL1        0.1898
     24 F          -9.9257  -19.0069   24.7715 F       1  UNL1       -0.1996
     25 O         -13.2091  -16.3811   20.4907 O.3     1  UNL1       -0.4690
     26 C         -12.5325  -15.7087   19.3331 C.3     1  UNL1        0.2526
     27 O         -12.9042  -18.8130   25.0725 O.3     1  UNL1       -0.4690
     28 C         -14.3248  -18.4460   25.3844 C.3     1  UNL1        0.2526
     29 C          -5.8949  -21.2681   20.3034 C.3     1  UNL1        0.0237
     30 C          -5.9171  -19.7835   20.0898 C.3     1  UNL1        0.0998
@<TRIPOS>BOND
     1    29    30    1
     2    30     1    1
     3     1     2   am
     4     2     3    2
     5     2     4   am
     6     4    17    1
     7    17    18   ar
     8    18    19    1
     9    18    20   ar
    10    20    25    1
    11    25    26    1
    12    20    21   ar
    13    21    22   ar
    14    22    27    1
    15    27    28    1
    16    22    23   ar
    17    23    24    1
    18     4     5    1
    19     5     6    1
    20     6     7   ar
    21     7     8   ar
    22     8     9   ar
    23     9    10   ar
    24    10    11   ar
    25    10    12    1
    26    12    13    1
    27    13    14    2
    28    13    15   am
    29    11     1    1
    30    23    17   ar
    31    11     6   ar
    32    15     9    1
    33    15    16    1
@<TRIPOS>MOLECULE
*****
 30 33 0 0 0
SMALL
GASTEIGER

@<TRIPOS>ATOM
      1 N           7.2670   -5.4091   26.2498 N.am    1  UNL1       -0.2433
      2 C           7.2720   -5.1094   24.7801 C.2     1  UNL1        0.3150
      3 O           7.7143   -6.1575   23.8025 O.2     1  UNL1       -0.2516
      4 N           6.8347   -3.7616   24.2880 N.am    1  UNL1       -0.2342
      5 C           6.3924   -2.7134   25.2656 C.3     1  UNL1        0.1292
      6 C           6.3874   -3.0131   26.7355 C.ar    1  UNL1        0.0308
      7 C           5.9451   -1.9650   27.7131 C.ar    1  UNL1        0.0989
      8 N           5.9402   -2.2647   29.1828 N.ar    1  UNL1       -0.2295
      9 C           6.3775   -3.6125   29.6749 C.ar    1  UNL1        0.1317
     10 C           6.8198   -4.6606   28.6973 C.ar    1  UNL1        0.0322
     11 C           6.8248   -4.3610   27.2275 C.ar    1  UNL1        0.0536
     12 C           7.1938   -5.8892   29.4724 C.3     1  UNL1        0.1157
     13 C           6.9827   -5.6003   30.9291 C.2     1  UNL1        0.2317
     14 O           7.2323   -6.5514   32.0618 O.2     1  UNL1       -0.2744
     15 N           6.4782   -4.1932   31.0543 N.am    1  UNL1       -0.2693
     16 H           6.2527   -3.7319   31.8943 H       1  UNL1        0.1563
     17 C           6.8397   -3.4619   22.8183 C.ar    1  UNL1        0.1167
     18 C           5.5664   -3.5511   22.0303 C.ar    1  UNL1        0.1898
     19 F           4.2882   -3.9400   22.7121 F       1  UNL1       -0.1996
     20 C           5.5715   -3.2515   20.5605 C.ar    1  UNL1        0.1704
     21 C           6.8498   -2.8626   19.8787 C.ar    1  UNL1        0.0785
     22 C           8.1230   -2.7734   20.6667 C.ar    1  UNL1        0.1704
     23 C           8.1179   -3.0731   22.1365 C.ar    1  UNL1        0.1898
     24 F           9.3912   -2.9839   22.9244 F       1  UNL1       -0.1996
     25 O           4.2982   -3.3407   19.7725 O.3     1  UNL1       -0.4690
     26 C           3.7844   -4.6774   19.3265 C.3     1  UNL1        0.2526
     27 O           9.4012   -2.3845   19.9849 O.3     1  UNL1       -0.4690
     28 C           9.5344   -1.0284   19.3580 C.3     1  UNL1        0.2526
     29 C           6.9298   -7.9829   26.3585 C.3     1  UNL1        0.0237
     30 C           7.7044   -6.7569   26.7419 C.3     1  UNL1        0.0998
@<TRIPOS>BOND
     1    29    30    1
     2    30     1    1
     3     1     2   am
     4     2     3    2
     5     2     4   am
     6     4    17    1
     7    17    18   ar
     8    18    19    1
     9    18    20   ar
    10    20    25    1
    11    25    26    1
    12    20    21   ar
    13    21    22   ar
    14    22    27    1
    15    27    28    1
    16    22    23   ar
    17    23    24    1
    18     4     5    1
    19     5     6    1
    20     6     7   ar
    21     7     8   ar
    22     8     9   ar
    23     9    10   ar
    24    10    11   ar
    25    10    12    1
    26    12    13    1
    27    13    14    2
    28    13    15   am
    29    11     1    1
    30    23    17   ar
    31    11     6   ar
    32    15     9    1
    33    15    16    1
@<TRIPOS>MOLECULE
*****
 30 33 0 0 0
SMALL
GASTEIGER

@<TRIPOS>ATOM
      1 N           7.2929   -5.4033   26.2395 N.am    1  UNL1       -0.2433
      2 C           7.2897   -5.1010   24.7703 C.2     1  UNL1        0.3150
      3 O           7.7507   -6.1387   23.7902 O.2     1  UNL1       -0.2516
      4 N           6.8255   -3.7611   24.2813 N.am    1  UNL1       -0.2342
      5 C           6.3645   -2.7235   25.2614 C.3     1  UNL1        0.1292
      6 C           6.3677   -3.0257   26.7307 C.ar    1  UNL1        0.0308
      7 C           5.9067   -1.9881   27.7109 C.ar    1  UNL1        0.0989
      8 N           5.9100   -2.2903   29.1801 N.ar    1  UNL1       -0.2295
      9 C           6.3742   -3.6302   29.6692 C.ar    1  UNL1        0.1317
     10 C           6.8352   -4.6678   28.6890 C.ar    1  UNL1        0.0322
     11 C           6.8319   -4.3657   27.2198 C.ar    1  UNL1        0.0536
     12 C           7.2343   -5.8902   29.4614 C.3     1  UNL1        0.1157
     13 C           7.0200   -5.6079   30.9189 C.2     1  UNL1        0.2317
     14 O           7.2899   -6.5560   32.0495 O.2     1  UNL1       -0.2744
     15 N           6.4884   -4.2112   31.0473 N.am    1  UNL1       -0.2693
     16 H           6.2554   -3.7558   31.8885 H       1  UNL1        0.1563
     17 C           6.8222   -3.4589   22.8120 C.ar    1  UNL1        0.1167
     18 C           8.0973   -3.0721   22.1231 C.ar    1  UNL1        0.1898
     19 F           9.3755   -2.9874   22.9034 F       1  UNL1       -0.1996
     20 C           8.0939   -2.7699   20.6538 C.ar    1  UNL1        0.1704
     21 C           6.8157   -2.8546   19.8735 C.ar    1  UNL1        0.0785
     22 C           5.5406   -3.2414   20.5625 C.ar    1  UNL1        0.1704
     23 C           5.5440   -3.5436   22.0318 C.ar    1  UNL1        0.1898
     24 F           4.2689   -3.9304   22.7207 F       1  UNL1       -0.1996
     25 O           9.3690   -2.3831   19.9648 O.3     1  UNL1       -0.4690
     26 C           9.5360   -0.9955   19.4202 C.3     1  UNL1        0.2526
     27 O           4.2624   -3.3261   19.7823 O.3     1  UNL1       -0.4690
     28 C           3.6800   -4.6653   19.4399 C.3     1  UNL1        0.2526
     29 C           6.9329   -7.9670   26.4584 C.3     1  UNL1        0.0237
     30 C           7.7571   -6.7432   26.7286 C.3     1  UNL1        0.0998
@<TRIPOS>BOND
     1    29    30    1
     2    30     1    1
     3     1     2   am
     4     2     3    2
     5     2     4   am
     6     4    17    1
     7    17    18   ar
     8    18    19    1
     9    18    20   ar
    10    20    25    1
    11    25    26    1
    12    20    21   ar
    13    21    22   ar
    14    22    27    1
    15    27    28    1
    16    22    23   ar
    17    23    24    1
    18     4     5    1
    19     5     6    1
    20     6     7   ar
    21     7     8   ar
    22     8     9   ar
    23     9    10   ar
    24    10    11   ar
    25    10    12    1
    26    12    13    1
    27    13    14    2
    28    13    15   am
    29    11     1    1
    30    23    17   ar
    31    11     6   ar
    32    15     9    1
    33    15    16    1
@<TRIPOS>MOLECULE
*****
 30 33 0 0 0
SMALL
GASTEIGER

@<TRIPOS>ATOM
      1 N           6.3580   -2.9724   26.3771 N.am    1  UNL1       -0.2433
      2 C           6.2924   -2.6867   24.9060 C.2     1  UNL1        0.3150
      3 O           5.7998   -1.3552   24.4219 O.2     1  UNL1       -0.2516
      4 N           6.7193   -3.7326   23.9191 N.am    1  UNL1       -0.2342
      5 C           7.2119   -5.0641   24.4033 C.3     1  UNL1        0.1292
      6 C           7.2776   -5.3498   25.8744 C.ar    1  UNL1        0.0308
      7 C           7.7701   -6.6813   26.3586 C.ar    1  UNL1        0.0989
      8 N           7.8358   -6.9670   27.8296 N.ar    1  UNL1       -0.2295
      9 C           7.4089   -5.9212   28.8165 C.ar    1  UNL1        0.1317
     10 C           6.9163   -4.5896   28.3324 C.ar    1  UNL1        0.0322
     11 C           6.8506   -4.3039   26.8613 C.ar    1  UNL1        0.0536
     12 C           6.5657   -3.7607   29.5324 C.3     1  UNL1        0.1157
     13 C           6.8416   -4.5800   30.7582 C.2     1  UNL1        0.2317
     14 O           6.6331   -4.1412   32.1773 O.2     1  UNL1       -0.2744
     15 N           7.3627   -5.9152   30.3158 N.am    1  UNL1       -0.2693
     16 H           7.6279   -6.6574   30.9059 H       1  UNL1        0.1563
     17 C           6.6536   -3.4468   22.4481 C.ar    1  UNL1        0.1167
     18 C           7.8932   -3.0424   21.7065 C.ar    1  UNL1        0.1898
     19 F           9.1984   -2.9237   22.4360 F       1  UNL1       -0.1996
     20 C           7.8274   -2.7567   20.2354 C.ar    1  UNL1        0.1704
     21 C           6.5221   -2.8754   19.5059 C.ar    1  UNL1        0.0785
     22 C           5.2826   -3.2799   20.2475 C.ar    1  UNL1        0.1704
     23 C           5.3484   -3.5656   21.7185 C.ar    1  UNL1        0.1898
     24 F           4.1088   -3.9700   22.4601 F       1  UNL1       -0.1996
     25 O           9.0670   -2.3523   19.4938 O.3     1  UNL1       -0.4690
     26 C           9.5359   -0.9281   19.5373 C.3     1  UNL1        0.2526
     27 O           3.9773   -3.3986   19.5180 O.3     1  UNL1       -0.4690
     28 C           3.3821   -4.7512   19.2611 C.3     1  UNL1        0.2526
     29 C           4.4755   -1.6090   27.5378 C.3     1  UNL1        0.0237
     30 C           5.9311   -1.9265   27.3640 C.3     1  UNL1        0.0998
@<TRIPOS>BOND
     1    29    30    1
     2    30     1    1
     3     1     2   am
     4     2     3    2
     5     2     4   am
     6     4    17    1
     7    17    18   ar
     8    18    19    1
     9    18    20   ar
    10    20    25    1
    11    25    26    1
    12    20    21   ar
    13    21    22   ar
    14    22    27    1
    15    27    28    1
    16    22    23   ar
    17    23    24    1
    18     4     5    1
    19     5     6    1
    20     6     7   ar
    21     7     8   ar
    22     8     9   ar
    23     9    10   ar
    24    10    11   ar
    25    10    12    1
    26    12    13    1
    27    13    14    2
    28    13    15   am
    29    11     1    1
    30    23    17   ar
    31    11     6   ar
    32    15     9    1
    33    15    16    1
@<TRIPOS>MOLECULE
*****
 30 33 0 0 0
SMALL
GASTEIGER

@<TRIPOS>ATOM
      1 N           6.3845   -2.9719   26.4269 N.am    1  UNL1       -0.2433
      2 C           6.3314   -2.6872   24.9552 C.2     1  UNL1        0.3150
      3 O           5.8544   -1.3517   24.4665 O.2     1  UNL1       -0.2516
      4 N           6.7552   -3.7379   23.9722 N.am    1  UNL1       -0.2342
      5 C           7.2321   -5.0735   24.4609 C.3     1  UNL1        0.1292
      6 C           7.2852   -5.3583   25.9328 C.ar    1  UNL1        0.0308
      7 C           7.7622   -6.6937   26.4215 C.ar    1  UNL1        0.0989
      8 N           7.8153   -6.9785   27.8933 N.ar    1  UNL1       -0.2295
      9 C           7.3915   -5.9278   28.8763 C.ar    1  UNL1        0.1317
     10 C           6.9146   -4.5922   28.3875 C.ar    1  UNL1        0.0322
     11 C           6.8614   -4.3074   26.9158 C.ar    1  UNL1        0.0536
     12 C           6.5636   -3.7589   29.5844 C.3     1  UNL1        0.1157
     13 C           6.8237   -4.5795   30.8128 C.2     1  UNL1        0.2317
     14 O           6.6097   -4.1372   32.2301 O.2     1  UNL1       -0.2744
     15 N           7.3354   -5.9199   30.3752 N.am    1  UNL1       -0.2693
     16 H           7.5897   -6.6638   30.9677 H       1  UNL1        0.1563
     17 C           6.7020   -3.4531   22.5005 C.ar    1  UNL1        0.1167
     18 C           5.4038   -3.5760   21.7592 C.ar    1  UNL1        0.1898
     19 F           4.1587   -3.9837   22.4896 F       1  UNL1       -0.1996
     20 C           5.3508   -3.2912   20.2873 C.ar    1  UNL1        0.1704
     21 C           6.5958   -2.8835   19.5569 C.ar    1  UNL1        0.0785
     22 C           7.8940   -2.7606   20.2983 C.ar    1  UNL1        0.1704
     23 C           7.9471   -3.0455   21.7700 C.ar    1  UNL1        0.1898
     24 F           9.2453   -2.9226   22.5113 F       1  UNL1       -0.1996
     25 O           4.0525   -3.4141   19.5460 O.3     1  UNL1       -0.4690
     26 C           3.4534   -4.7674   19.3020 C.3     1  UNL1        0.2526
     27 O           9.1391   -2.3529   19.5679 O.3     1  UNL1       -0.4690
     28 C           9.5351   -0.9074   19.5097 C.3     1  UNL1        0.2526
     29 C           4.5043   -1.6176   27.6021 C.3     1  UNL1        0.0237
     30 C           5.9607   -1.9212   27.4100 C.3     1  UNL1        0.0998
@<TRIPOS>BOND
     1    29    30    1
     2    30     1    1
     3     1     2   am
     4     2     3    2
     5     2     4   am
     6     4    17    1
     7    17    18   ar
     8    18    19    1
     9    18    20   ar
    10    20    25    1
    11    25    26    1
    12    20    21   ar
    13    21    22   ar
    14    22    27    1
    15    27    28    1
    16    22    23   ar
    17    23    24    1
    18     4     5    1
    19     5     6    1
    20     6     7   ar
    21     7     8   ar
    22     8     9   ar
    23     9    10   ar
    24    10    11   ar
    25    10    12    1
    26    12    13    1
    27    13    14    2
    28    13    15   am
    29    11     1    1
    30    23    17   ar
    31    11     6   ar
    32    15     9    1
    33    15    16    1
@<TRIPOS>MOLECULE
*****
 30 33 0 0 0
SMALL
GASTEIGER

@<TRIPOS>ATOM
      1 N         -12.4619   -2.6732   18.5545 N.am    1  UNL1       -0.2433
      2 C         -13.2208   -1.3803   18.5033 C.2     1  UNL1        0.3150
      3 O         -12.4871   -0.0875   18.3027 O.2     1  UNL1       -0.2516
      4 N         -14.7134   -1.3803   18.6526 N.am    1  UNL1       -0.2342
      5 C         -15.4471   -2.6732   18.8532 C.3     1  UNL1        0.1292
      6 C         -14.6882   -3.9661   18.9045 C.ar    1  UNL1        0.0308
      7 C         -15.4218   -5.2589   19.1051 C.ar    1  UNL1        0.0989
      8 N         -14.6630   -6.5517   19.1563 N.ar    1  UNL1       -0.2295
      9 C         -13.1705   -6.5518   19.0070 C.ar    1  UNL1        0.1317
     10 C         -12.4368   -5.2589   18.8063 C.ar    1  UNL1        0.0322
     11 C         -13.1956   -3.9661   18.7551 C.ar    1  UNL1        0.0536
     12 C         -10.9738   -5.5693   18.6905 C.3     1  UNL1        0.1157
     13 C         -10.8034   -7.0540   18.8195 C.2     1  UNL1        0.2317
     14 O          -9.5035   -7.8005   18.7628 O.2     1  UNL1       -0.2744
     15 N         -12.1610   -7.6612   19.0151 N.am    1  UNL1       -0.2693
     16 H         -12.3553   -8.6196   19.1288 H       1  UNL1        0.1563
     17 C         -15.4722   -0.0874   18.6014 C.ar    1  UNL1        0.1167
     18 C         -16.1498    0.4338   19.8339 C.ar    1  UNL1        0.1898
     19 F         -16.0686   -0.3377   21.1177 F       1  UNL1       -0.1996
     20 C         -16.9086    1.7268   19.7826 C.ar    1  UNL1        0.1704
     21 C         -16.9898    2.4984   18.4988 C.ar    1  UNL1        0.0785
     22 C         -16.3121    1.9770   17.2663 C.ar    1  UNL1        0.1704
     23 C         -15.5534    0.6842   17.3176 C.ar    1  UNL1        0.1898
     24 F         -14.8757    0.1629   16.0851 F       1  UNL1       -0.1996
     25 O         -17.5863    2.2481   21.0151 O.3     1  UNL1       -0.4690
     26 C         -16.8813    3.2345   21.8982 C.3     1  UNL1        0.2526
     27 O         -16.3933    2.7486   15.9826 O.3     1  UNL1       -0.4690
     28 C         -16.6665    4.2233   16.0099 C.3     1  UNL1        0.2526
     29 C         -10.3509   -2.4747   17.0530 C.3     1  UNL1        0.0237
     30 C         -10.9694   -2.6732   18.4051 C.3     1  UNL1        0.0998
@<TRIPOS>BOND
     1    29    30    1
     2    30     1    1
     3     1     2   am
     4     2     3    2
     5     2     4   am
     6     4    17    1
     7    17    18   ar
     8    18    19    1
     9    18    20   ar
    10    20    25    1
    11    25    26    1
    12    20    21   ar
    13    21    22   ar
    14    22    27    1
    15    27    28    1
    16    22    23   ar
    17    23    24    1
    18     4     5    1
    19     5     6    1
    20     6     7   ar
    21     7     8   ar
    22     8     9   ar
    23     9    10   ar
    24    10    11   ar
    25    10    12    1
    26    12    13    1
    27    13    14    2
    28    13    15   am
    29    11     1    1
    30    23    17   ar
    31    11     6   ar
    32    15     9    1
    33    15    16    1
@<TRIPOS>MOLECULE
*****
 30 33 0 0 0
SMALL
GASTEIGER

@<TRIPOS>ATOM
      1 N         -15.8169   -3.9364   18.4272 N.am    1  UNL1       -0.2433
      2 C         -16.0392   -2.4532   18.4048 C.2     1  UNL1        0.3150
      3 O         -17.4127   -1.9044   18.1552 O.2     1  UNL1       -0.2516
      4 N         -14.8881   -1.5187   18.6321 N.am    1  UNL1       -0.2342
      5 C         -13.5145   -2.0675   18.8818 C.3     1  UNL1        0.1292
      6 C         -13.2921   -3.5508   18.9041 C.ar    1  UNL1        0.0308
      7 C         -11.9187   -4.0996   19.1537 C.ar    1  UNL1        0.0989
      8 N         -11.6963   -5.5828   19.1760 N.ar    1  UNL1       -0.2295
      9 C         -12.8474   -6.5173   18.9488 C.ar    1  UNL1        0.1317
     10 C         -14.2209   -5.9685   18.6991 C.ar    1  UNL1        0.0322
     11 C         -14.4433   -4.4853   18.6768 C.ar    1  UNL1        0.0536
     12 C         -15.1554   -7.1265   18.5095 C.3     1  UNL1        0.1157
     13 C         -14.3593   -8.3909   18.6419 C.2     1  UNL1        0.2317
     14 O         -14.8955   -9.7868   18.5235 O.2     1  UNL1       -0.2744
     15 N         -12.9329   -8.0144   18.9134 N.am    1  UNL1       -0.2693
     16 H         -12.1843   -8.6401   19.0452 H       1  UNL1        0.1563
     17 C         -15.1105   -0.0355   18.6098 C.ar    1  UNL1        0.1167
     18 C         -15.8492    0.6291   19.7334 C.ar    1  UNL1        0.1898
     19 F         -16.3656   -0.1895   20.8794 F       1  UNL1       -0.1996
     20 C         -16.0716    2.1125   19.7110 C.ar    1  UNL1        0.1704
     21 C         -15.5553    2.9311   18.5650 C.ar    1  UNL1        0.0785
     22 C         -14.8165    2.2664   17.4414 C.ar    1  UNL1        0.1704
     23 C         -14.5941    0.7831   17.4638 C.ar    1  UNL1        0.1898
     24 F         -13.8553    0.1185   16.3402 F       1  UNL1       -0.1996
     25 O         -16.8104    2.7771   20.8346 O.3     1  UNL1       -0.4690
     26 C         -16.1733    3.9086   21.5854 C.3     1  UNL1        0.2526
     27 O         -14.3001    3.0850   16.2955 O.3     1  UNL1       -0.4690
     28 C         -12.8981    3.6172   16.3258 C.3     1  UNL1        0.2526
     29 C         -17.9878   -5.0811   19.2796 C.3     1  UNL1        0.0237
     30 C         -16.9680   -4.8709   18.1999 C.3     1  UNL1        0.0998
@<TRIPOS>BOND
     1    29    30    1
     2    30     1    1
     3     1     2   am
     4     2     3    2
     5     2     4   am
     6     4    17    1
     7    17    18   ar
     8    18    19    1
     9    18    20   ar
    10    20    25    1
    11    25    26    1
    12    20    21   ar
    13    21    22   ar
    14    22    27    1
    15    27    28    1
    16    22    23   ar
    17    23    24    1
    18     4     5    1
    19     5     6    1
    20     6     7   ar
    21     7     8   ar
    22     8     9   ar
    23     9    10   ar
    24    10    11   ar
    25    10    12    1
    26    12    13    1
    27    13    14    2
    28    13    15   am
    29    11     1    1
    30    23    17   ar
    31    11     6   ar
    32    15     9    1
    33    15    16    1
@<TRIPOS>MOLECULE
*****
 30 33 0 0 0
SMALL
GASTEIGER

@<TRIPOS>ATOM
      1 N         -12.1869   -2.6858   18.4211 N.am    1  UNL1       -0.2433
      2 C         -12.9409   -1.3901   18.3711 C.2     1  UNL1        0.3150
      3 O         -12.2097   -0.1065   18.1108 O.2     1  UNL1       -0.2516
      4 N         -14.4260   -1.3779   18.5815 N.am    1  UNL1       -0.2342
      5 C         -15.1572   -2.6615   18.8419 C.3     1  UNL1        0.1292
      6 C         -14.4032   -3.9573   18.8919 C.ar    1  UNL1        0.0308
      7 C         -15.1343   -5.2409   19.1522 C.ar    1  UNL1        0.0989
      8 N         -14.3803   -6.5366   19.2022 N.ar    1  UNL1       -0.2295
      9 C         -12.8952   -6.5488   18.9918 C.ar    1  UNL1        0.1317
     10 C         -12.1640   -5.2652   18.7314 C.ar    1  UNL1        0.0322
     11 C         -12.9180   -3.9695   18.6815 C.ar    1  UNL1        0.0536
     12 C         -10.7086   -5.5867   18.5629 C.3     1  UNL1        0.1157
     13 C         -10.5403   -7.0690   18.7191 C.2     1  UNL1        0.2317
     14 O          -9.2476   -7.8242   18.6265 O.2     1  UNL1       -0.2744
     15 N         -11.8917   -7.6637   18.9842 N.am    1  UNL1       -0.2693
     16 H         -12.0859   -8.6181   19.1279 H       1  UNL1        0.1563
     17 C         -15.1799   -0.0821   18.5315 C.ar    1  UNL1        0.1167
     18 C         -15.1638    0.7472   17.2817 C.ar    1  UNL1        0.1898
     19 F         -14.3938    0.2808   16.0820 F       1  UNL1       -0.1996
     20 C         -15.9179    2.0431   17.2319 C.ar    1  UNL1        0.1704
     21 C         -16.6879    2.5095   18.4317 C.ar    1  UNL1        0.0785
     22 C         -16.7039    1.6801   19.6814 C.ar    1  UNL1        0.1704
     23 C         -15.9499    0.3843   19.7313 C.ar    1  UNL1        0.1898
     24 F         -15.9660   -0.4450   20.9811 F       1  UNL1       -0.1996
     25 O         -15.9018    2.8724   15.9821 O.3     1  UNL1       -0.4690
     26 C         -15.4090    4.2884   16.0279 C.3     1  UNL1        0.2526
     27 O         -17.4739    2.1465   20.8812 O.3     1  UNL1       -0.4690
     28 C         -18.6921    1.3947   21.3292 C.3     1  UNL1        0.2526
     29 C         -10.1391   -2.5584   16.8273 C.3     1  UNL1        0.0237
     30 C         -10.7018   -2.6980   18.2107 C.3     1  UNL1        0.0998
@<TRIPOS>BOND
     1    29    30    1
     2    30     1    1
     3     1     2   am
     4     2     3    2
     5     2     4   am
     6     4    17    1
     7    17    18   ar
     8    18    19    1
     9    18    20   ar
    10    20    25    1
    11    25    26    1
    12    20    21   ar
    13    21    22   ar
    14    22    27    1
    15    27    28    1
    16    22    23   ar
    17    23    24    1
    18     4     5    1
    19     5     6    1
    20     6     7   ar
    21     7     8   ar
    22     8     9   ar
    23     9    10   ar
    24    10    11   ar
    25    10    12    1
    26    12    13    1
    27    13    14    2
    28    13    15   am
    29    11     1    1
    30    23    17   ar
    31    11     6   ar
    32    15     9    1
    33    15    16    1
