@<TRIPOS>MOLECULE
*****
 33 37 0 0 0
SMALL
GASTEIGER

@<TRIPOS>ATOM
      1 C           0.4085    2.1244   19.1555 C.ar    1  UNL1        0.1074
      2 C           0.1066    2.8607   17.8840 C.ar    1  UNL1        0.0588
      3 S          -0.8818    3.9440   18.1992 S.2     1  UNL1       -0.0508
      4 C          -1.1908    3.8774   19.6655 C.ar    1  UNL1        0.1646
      5 N          -0.3934    2.7528   20.2565 N.ar    1  UNL1       -0.2224
      6 C           3.2734   -0.5037   18.3587 C.ar    1  UNL1        0.2416
      7 N           2.3346    0.6571   18.2136 N.ar    1  UNL1       -0.2089
      8 C           1.3473    0.9636   19.3006 C.ar    1  UNL1        0.1026
      9 C           1.2990    0.1093   20.5326 C.ar    1  UNL1        0.0224
     10 C           2.2379   -1.0515   20.6777 C.ar    1  UNL1        0.0239
     11 C           3.2251   -1.3580   19.5907 C.ar    1  UNL1        0.1189
     12 N           4.1640   -2.5188   19.7358 N.ar    1  UNL1       -0.2826
     13 C           3.8977   -3.9283   19.2971 C.ar    1  UNL1        0.1826
     14 N           5.1031   -4.7545   19.6351 N.ar    1  UNL1       -0.2280
     15 C           6.1144   -3.8556   20.2828 C.ar    1  UNL1        0.0786
     16 C           7.4684   -4.2664   20.7808 C.3     1  UNL1        0.0538
     17 C           5.5340   -2.4740   20.3450 C.ar    1  UNL1        0.0963
     18 C           5.4604    0.0690   17.0786 C.3     1  UNL1        0.2543
     19 O           4.2607   -0.8102   17.2717 O.3     1  UNL1       -0.4551
     20 N          -2.1320    4.7773   20.4101 N.pl3   1  UNL1       -0.2786
     21 H          -2.0137    5.7539   20.3710 H       1  UNL1        0.1555
     22 C          -3.2534    4.1892   21.2142 C.ar    1  UNL1        0.1276
     23 C          -3.2858    4.0429   22.7067 C.ar    1  UNL1        0.0244
     24 C          -4.5917    3.4075   23.0820 C.ar    1  UNL1        0.0773
     25 N          -5.3664    3.1610   21.8214 N.ar    1  UNL1       -0.1728
     26 N          -4.5393    3.6441   20.6670 N.ar    1  UNL1       -0.2357
     27 C          -4.6241    3.2612   24.5745 C.3     1  UNL1        0.0477
     28 C          -3.3382    3.8062   25.1216 C.3     1  UNL1        0.0112
     29 C          -2.5111    4.2894   23.9673 C.3     1  UNL1        0.0308
     30 C          -4.9296    3.5915   19.2197 C.3     1  UNL1        0.1604
     31 C          -6.3787    3.5450   18.8348 C.3     1  UNL1        0.1635
     32 O          -7.4087    4.1931   19.7116 O.3     1  UNL1       -0.3799
     33 H          -7.4512    3.7255   20.5604 H       1  UNL1        0.2105
@<TRIPOS>BOND
     1    18    19    1
     2    19     6    1
     3     6     7   ar
     4     7     8   ar
     5     8     1    1
     6     1     2   ar
     7     2     3   ar
     8     3     4   ar
     9     4    20    1
    10    20    22    1
    11    22    23   ar
    12    23    24   ar
    13    24    25   ar
    14    25    26   ar
    15    26    30    1
    16    30    31    1
    17    31    32    1
    18    24    27    1
    19    27    28    1
    20    28    29    1
    21     4     5   ar
    22     8     9   ar
    23     9    10   ar
    24    10    11   ar
    25    11    12    1
    26    12    13   ar
    27    13    14   ar
    28    14    15   ar
    29    15    16    1
    30    15    17   ar
    31    11     6   ar
    32    17    12   ar
    33     5     1   ar
    34    26    22   ar
    35    29    23    1
    36    20    21    1
    37    32    33    1
@<TRIPOS>MOLECULE
*****
 33 37 0 0 0
SMALL
GASTEIGER

@<TRIPOS>ATOM
      1 C           4.8346   -3.5532   20.8961 C.ar    1  UNL1        0.1074
      2 C           3.9690   -4.5794   20.2271 C.ar    1  UNL1        0.0588
      3 S           3.5118   -4.0156   18.9145 S.2     1  UNL1       -0.0508
      4 C           4.0948   -2.6409   18.7723 C.ar    1  UNL1        0.1646
      5 N           4.9123   -2.3552   19.9969 N.ar    1  UNL1       -0.2224
      6 C           7.3121   -4.8096   23.7304 C.ar    1  UNL1        0.2416
      7 N           6.6420   -4.6634   22.3965 N.ar    1  UNL1       -0.2089
      8 C           5.5048   -3.6994   22.2301 C.ar    1  UNL1        0.1026
      9 C           5.0378   -2.8816   23.3977 C.ar    1  UNL1        0.0224
     10 C           5.7080   -3.0278   24.7317 C.ar    1  UNL1        0.0239
     11 C           6.8452   -3.9918   24.8981 C.ar    1  UNL1        0.1189
     12 N           7.5153   -4.1380   26.2320 N.ar    1  UNL1       -0.2826
     13 C           8.7262   -3.3851   26.6976 C.ar    1  UNL1        0.1826
     14 N           9.0516   -3.8445   28.0879 N.ar    1  UNL1       -0.2280
     15 C           8.0417   -4.8814   28.4816 C.ar    1  UNL1        0.0786
     16 C           7.9903   -5.6092   29.7923 C.3     1  UNL1        0.0538
     17 C           7.0923   -5.0628   27.3347 C.ar    1  UNL1        0.0963
     18 C           8.1760   -7.1953   24.2887 C.3     1  UNL1        0.2543
     19 O           8.4493   -5.7735   23.8968 O.3     1  UNL1       -0.4551
     20 N           3.8954   -1.7145   17.6094 N.pl3   1  UNL1       -0.2786
     21 H           3.7865   -2.0801   16.7018 H       1  UNL1        0.1555
     22 C           3.8617   -0.2311   17.8295 C.ar    1  UNL1        0.1276
     23 C           2.6709    0.5683   18.2684 C.ar    1  UNL1        0.0244
     24 C           3.0862    2.0068   18.3594 C.ar    1  UNL1        0.0773
     25 N           4.5338    2.0964   17.9767 N.ar    1  UNL1       -0.1728
     26 N           5.0132    0.7133   17.6491 N.ar    1  UNL1       -0.2357
     27 C           1.8954    2.8063   18.7984 C.3     1  UNL1        0.0477
     28 C           0.7440    1.8619   18.9787 C.3     1  UNL1        0.0112
     29 C           1.2233    0.4788   18.6511 C.3     1  UNL1        0.0308
     30 C           6.4002    0.3401   17.2172 C.3     1  UNL1        0.1604
     31 C           7.1664   -0.7037   17.9746 C.3     1  UNL1        0.1635
     32 O           7.0649   -2.1459   17.5753 O.3     1  UNL1       -0.3799
     33 H           6.1613   -2.4620   17.7322 H       1  UNL1        0.2105
@<TRIPOS>BOND
     1    18    19    1
     2    19     6    1
     3     6     7   ar
     4     7     8   ar
     5     8     1    1
     6     1     2   ar
     7     2     3   ar
     8     3     4   ar
     9     4    20    1
    10    20    22    1
    11    22    23   ar
    12    23    24   ar
    13    24    25   ar
    14    25    26   ar
    15    26    30    1
    16    30    31    1
    17    31    32    1
    18    24    27    1
    19    27    28    1
    20    28    29    1
    21     4     5   ar
    22     8     9   ar
    23     9    10   ar
    24    10    11   ar
    25    11    12    1
    26    12    13   ar
    27    13    14   ar
    28    14    15   ar
    29    15    16    1
    30    15    17   ar
    31    11     6   ar
    32    17    12   ar
    33     5     1   ar
    34    26    22   ar
    35    29    23    1
    36    20    21    1
    37    32    33    1
@<TRIPOS>MOLECULE
*****
 33 37 0 0 0
SMALL
GASTEIGER

@<TRIPOS>ATOM
      1 C          -0.3388    2.7483   20.4396 C.ar    1  UNL1        0.1074
      2 C          -0.2983    4.2428   20.3191 C.ar    1  UNL1        0.0588
      3 S          -1.6356    4.7780   20.7379 S.2     1  UNL1       -0.0508
      4 C          -2.5025    3.6141   21.1171 C.ar    1  UNL1        0.1646
      5 N          -1.7011    2.3597   20.9328 N.ar    1  UNL1       -0.2224
      6 C           3.2902    1.4018   19.5640 C.ar    1  UNL1        0.2416
      7 N           2.1659    2.3426   19.8811 N.ar    1  UNL1       -0.2089
      8 C           0.7855    1.8074   20.1225 C.ar    1  UNL1        0.1026
      9 C           0.5296    0.3313   20.0468 C.ar    1  UNL1        0.0224
     10 C           1.6540   -0.6096   19.7297 C.ar    1  UNL1        0.0239
     11 C           3.0343   -0.0744   19.4883 C.ar    1  UNL1        0.1189
     12 N           4.1587   -1.0152   19.1712 N.ar    1  UNL1       -0.2826
     13 C           4.4952   -1.5618   17.8155 C.ar    1  UNL1        0.1826
     14 N           5.6884   -2.4590   17.9606 N.ar    1  UNL1       -0.2280
     15 C           6.0894   -2.4670   19.4060 C.ar    1  UNL1        0.0786
     16 C           7.2347   -3.2329   19.9991 C.3     1  UNL1        0.0538
     17 C           5.1440   -1.5747   20.1542 C.ar    1  UNL1        0.0963
     18 C           5.0956    2.3168   17.9352 C.3     1  UNL1        0.2543
     19 O           4.6706    1.9370   19.3226 O.3     1  UNL1       -0.4551
     20 N          -3.9218    3.6912   21.5966 N.pl3   1  UNL1       -0.2786
     21 H          -4.6618    3.6848   20.9473 H       1  UNL1        0.1555
     22 C          -4.2136    3.7780   23.0654 C.ar    1  UNL1        0.1276
     23 C          -3.2137    3.6274   24.1733 C.ar    1  UNL1        0.0244
     24 C          -3.9386    3.7869   25.4768 C.ar    1  UNL1        0.0773
     25 N          -5.3865    4.0361   25.1745 N.ar    1  UNL1       -0.1728
     26 N          -5.5565    4.0305   23.6841 N.ar    1  UNL1       -0.2357
     27 C          -2.9387    3.6364   26.5848 C.3     1  UNL1        0.0477
     28 C          -1.5958    3.3839   25.9660 C.3     1  UNL1        0.0112
     29 C          -1.7657    3.3783   24.4757 C.3     1  UNL1        0.0308
     30 C          -6.8434    4.2406   22.9427 C.3     1  UNL1        0.1604
     31 C          -8.1084    4.5179   23.6996 C.3     1  UNL1        0.1635
     32 O          -9.1996    3.4896   23.7391 O.3     1  UNL1       -0.3799
     33 H          -9.5657    3.3723   22.8485 H       1  UNL1        0.2105
@<TRIPOS>BOND
     1    18    19    1
     2    19     6    1
     3     6     7   ar
     4     7     8   ar
     5     8     1    1
     6     1     2   ar
     7     2     3   ar
     8     3     4   ar
     9     4    20    1
    10    20    22    1
    11    22    23   ar
    12    23    24   ar
    13    24    25   ar
    14    25    26   ar
    15    26    30    1
    16    30    31    1
    17    31    32    1
    18    24    27    1
    19    27    28    1
    20    28    29    1
    21     4     5   ar
    22     8     9   ar
    23     9    10   ar
    24    10    11   ar
    25    11    12    1
    26    12    13   ar
    27    13    14   ar
    28    14    15   ar
    29    15    16    1
    30    15    17   ar
    31    11     6   ar
    32    17    12   ar
    33     5     1   ar
    34    26    22   ar
    35    29    23    1
    36    20    21    1
    37    32    33    1
@<TRIPOS>MOLECULE
*****
 33 37 0 0 0
SMALL
GASTEIGER

@<TRIPOS>ATOM
      1 C           1.7807    0.7149   21.7638 C.ar    1  UNL1        0.1074
      2 C           0.6787    0.5673   20.7570 C.ar    1  UNL1        0.0588
      3 S           1.3032    0.4777   19.3961 S.2     1  UNL1       -0.0508
      4 C           2.7912    0.5699   19.5619 C.ar    1  UNL1        0.1646
      5 N           3.0863    0.7165   21.0252 N.ar    1  UNL1       -0.2224
      6 C           2.5394    0.5402   25.6553 C.ar    1  UNL1        0.2416
      7 N           2.7126    0.4160   24.1705 N.ar    1  UNL1       -0.2089
      8 C           1.6076    0.8391   23.2486 C.ar    1  UNL1        0.1026
      9 C           0.3294    1.3864   23.8115 C.ar    1  UNL1        0.0224
     10 C           0.1562    1.5106   25.2962 C.ar    1  UNL1        0.0239
     11 C           1.2612    1.0875   26.2182 C.ar    1  UNL1        0.1189
     12 N           1.0881    1.2116   27.7030 N.ar    1  UNL1       -0.2826
     13 C           0.5272    0.1620   28.6160 C.ar    1  UNL1        0.1826
     14 N           0.5379    0.7089   30.0127 N.ar    1  UNL1       -0.2280
     15 C           1.1053    2.0965   29.9628 C.ar    1  UNL1        0.0786
     16 C           1.2988    3.0127   31.1348 C.3     1  UNL1        0.0538
     17 C           1.4453    2.4072   28.5354 C.ar    1  UNL1        0.0963
     18 C           3.6757   -1.2817   27.1179 C.3     1  UNL1        0.2543
     19 O           3.6444    0.1171   26.5772 O.3     1  UNL1       -0.4551
     20 N           3.8059    0.5237   18.4581 N.pl3   1  UNL1       -0.2786
     21 H           3.9371    1.3074   17.8769 H       1  UNL1        0.1555
     22 C           4.6207   -0.7167   18.2400 C.ar    1  UNL1        0.1276
     23 C           4.2591   -2.1002   18.6928 C.ar    1  UNL1        0.0244
     24 C           5.3551   -3.0299   18.2634 C.ar    1  UNL1        0.0773
     25 N           6.3942   -2.2209   17.5452 N.ar    1  UNL1       -0.1728
     26 N           5.9404   -0.7912   17.5307 N.ar    1  UNL1       -0.2357
     27 C           4.9934   -4.4134   18.7163 C.3     1  UNL1        0.0477
     28 C           3.6738   -4.3387   19.4255 C.3     1  UNL1        0.0112
     29 C           3.2200   -2.9091   19.4110 C.3     1  UNL1        0.0308
     30 C           6.6768    0.3614   16.9151 C.3     1  UNL1        0.1604
     31 C           7.2960    1.4098   17.7912 C.3     1  UNL1        0.1635
     32 O           6.4516    2.1517   18.7843 O.3     1  UNL1       -0.3799
     33 H           5.8021    2.6967   18.3132 H       1  UNL1        0.2105
@<TRIPOS>BOND
     1    18    19    1
     2    19     6    1
     3     6     7   ar
     4     7     8   ar
     5     8     1    1
     6     1     2   ar
     7     2     3   ar
     8     3     4   ar
     9     4    20    1
    10    20    22    1
    11    22    23   ar
    12    23    24   ar
    13    24    25   ar
    14    25    26   ar
    15    26    30    1
    16    30    31    1
    17    31    32    1
    18    24    27    1
    19    27    28    1
    20    28    29    1
    21     4     5   ar
    22     8     9   ar
    23     9    10   ar
    24    10    11   ar
    25    11    12    1
    26    12    13   ar
    27    13    14   ar
    28    14    15   ar
    29    15    16    1
    30    15    17   ar
    31    11     6   ar
    32    17    12   ar
    33     5     1   ar
    34    26    22   ar
    35    29    23    1
    36    20    21    1
    37    32    33    1
@<TRIPOS>MOLECULE
*****
 33 37 0 0 0
SMALL
GASTEIGER

@<TRIPOS>ATOM
      1 C           4.1261   -1.0933   26.5907 C.ar    1  UNL1        0.1074
      2 C           2.9802   -0.6808   27.4663 C.ar    1  UNL1        0.0588
      3 S           3.4807   -0.6021   28.8782 S.2     1  UNL1       -0.0508
      4 C           4.9359   -0.9659   28.8751 C.ar    1  UNL1        0.1646
      5 N           5.3347   -1.2695   27.4614 N.ar    1  UNL1       -0.2224
      6 C           3.0924   -0.6638   22.7832 C.ar    1  UNL1        0.2416
      7 N           3.1458   -0.4629   24.2687 N.ar    1  UNL1       -0.2089
      8 C           4.0727   -1.2942   25.1052 C.ar    1  UNL1        0.1026
      9 C           4.9463   -2.3266   24.4561 C.ar    1  UNL1        0.0224
     10 C           4.8929   -2.5276   22.9706 C.ar    1  UNL1        0.0239
     11 C           3.9660   -1.6962   22.1342 C.ar    1  UNL1        0.1189
     12 N           3.9126   -1.8972   20.6487 N.ar    1  UNL1       -0.2826
     13 C           3.8033   -3.2150   19.9406 C.ar    1  UNL1        0.1826
     14 N           3.7823   -2.9479   18.4648 N.ar    1  UNL1       -0.2280
     15 C           3.8785   -1.4650   18.2607 C.ar    1  UNL1        0.0786
     16 C           3.8919   -0.7559   16.9389 C.3     1  UNL1        0.0538
     17 C           3.9591   -0.8156   19.6104 C.ar    1  UNL1        0.0963
     18 C           1.1067    1.0018   22.6045 C.3     1  UNL1        0.2543
     19 O           2.1655    0.1675   21.9468 O.3     1  UNL1       -0.4551
     20 N           5.8345   -1.0172   30.0751 N.pl3   1  UNL1       -0.2786
     21 H           6.2177   -0.1866   30.4390 H       1  UNL1        0.1555
     22 C           6.1491   -2.3341   30.7207 C.ar    1  UNL1        0.1276
     23 C           6.6930   -3.5482   30.0278 C.ar    1  UNL1        0.0244
     24 C           6.8552   -4.6326   31.0514 C.ar    1  UNL1        0.0773
     25 N           6.4114   -4.0887   32.3770 N.ar    1  UNL1       -0.1728
     26 N           5.9750   -2.6682   32.1727 N.ar    1  UNL1       -0.2357
     27 C           7.3991   -5.8466   30.3584 C.3     1  UNL1        0.0477
     28 C           7.5732   -5.5125   28.9065 C.3     1  UNL1        0.0112
     29 C           7.1368   -4.0920   28.7021 C.3     1  UNL1        0.0308
     30 C           5.4558   -1.7441   33.2339 C.3     1  UNL1        0.1604
     31 C           4.2000   -2.0878   33.9790 C.3     1  UNL1        0.1635
     32 O           3.5634   -3.4334   33.7952 O.3     1  UNL1       -0.3799
     33 H           3.2396   -3.5163   32.8846 H       1  UNL1        0.2105
@<TRIPOS>BOND
     1    18    19    1
     2    19     6    1
     3     6     7   ar
     4     7     8   ar
     5     8     1    1
     6     1     2   ar
     7     2     3   ar
     8     3     4   ar
     9     4    20    1
    10    20    22    1
    11    22    23   ar
    12    23    24   ar
    13    24    25   ar
    14    25    26   ar
    15    26    30    1
    16    30    31    1
    17    31    32    1
    18    24    27    1
    19    27    28    1
    20    28    29    1
    21     4     5   ar
    22     8     9   ar
    23     9    10   ar
    24    10    11   ar
    25    11    12    1
    26    12    13   ar
    27    13    14   ar
    28    14    15   ar
    29    15    16    1
    30    15    17   ar
    31    11     6   ar
    32    17    12   ar
    33     5     1   ar
    34    26    22   ar
    35    29    23    1
    36    20    21    1
    37    32    33    1
@<TRIPOS>MOLECULE
*****
 33 37 0 0 0
SMALL
GASTEIGER

@<TRIPOS>ATOM
      1 C           0.0883    2.6711   20.8858 C.ar    1  UNL1        0.1074
      2 C           0.4593    4.1207   20.9904 C.ar    1  UNL1        0.0588
      3 S          -0.7362    4.8695   21.5005 S.2     1  UNL1       -0.0508
      4 C          -1.8460    3.8826   21.7112 C.ar    1  UNL1        0.1646
      5 N          -1.3365    2.5240   21.3313 N.ar    1  UNL1       -0.2224
      6 C           2.6127   -0.3904   20.9499 C.ar    1  UNL1        0.2416
      7 N           1.7163    0.7175   21.4178 N.ar    1  UNL1       -0.2089
      8 C           0.9846    1.5632   20.4180 C.ar    1  UNL1        0.1026
      9 C           1.1494    1.3008   18.9502 C.ar    1  UNL1        0.0224
     10 C           2.0458    0.1929   18.4823 C.ar    1  UNL1        0.0239
     11 C           2.7774   -0.6528   19.4821 C.ar    1  UNL1        0.1189
     12 N           3.6738   -1.7607   19.0143 N.ar    1  UNL1       -0.2826
     13 C           4.9351   -1.5980   18.2189 C.ar    1  UNL1        0.1826
     14 N           5.5071   -2.9626   17.9727 N.ar    1  UNL1       -0.2280
     15 C           4.5993   -3.9687   18.6159 C.ar    1  UNL1        0.0786
     16 C           4.7908   -5.4565   18.6154 C.3     1  UNL1        0.0538
     17 C           3.4663   -3.2259   19.2596 C.ar    1  UNL1        0.0963
     18 C           4.7387   -0.8700   22.3640 C.3     1  UNL1        0.2543
     19 O           3.3444   -1.2361   21.9497 O.3     1  UNL1       -0.4551
     20 N          -3.2236    4.1989   22.2136 N.pl3   1  UNL1       -0.2786
     21 H          -3.3620    4.4248   23.1617 H       1  UNL1        0.1555
     22 C          -4.3903    4.1710   21.2712 C.ar    1  UNL1        0.1276
     23 C          -4.3137    4.0919   19.7753 C.ar    1  UNL1        0.0244
     24 C          -5.7146    4.0892   19.2389 C.ar    1  UNL1        0.0773
     25 N          -6.6569    4.1667   20.4033 N.ar    1  UNL1       -0.1728
     26 N          -5.8385    4.2172   21.6594 N.ar    1  UNL1       -0.2357
     27 C          -5.6380    4.0102   17.7429 C.3     1  UNL1        0.0477
     28 C          -4.1898    3.9640   17.3548 C.3     1  UNL1        0.0112
     29 C          -3.3714    4.0145   18.6108 C.3     1  UNL1        0.0308
     30 C          -6.3742    4.2994   23.0580 C.3     1  UNL1        0.1604
     31 C          -7.7926    4.7270   23.2941 C.3     1  UNL1        0.1635
     32 O          -8.8277    3.7120   23.6787 O.3     1  UNL1       -0.3799
     33 H          -8.9645    3.0949   22.9429 H       1  UNL1        0.2105
@<TRIPOS>BOND
     1    18    19    1
     2    19     6    1
     3     6     7   ar
     4     7     8   ar
     5     8     1    1
     6     1     2   ar
     7     2     3   ar
     8     3     4   ar
     9     4    20    1
    10    20    22    1
    11    22    23   ar
    12    23    24   ar
    13    24    25   ar
    14    25    26   ar
    15    26    30    1
    16    30    31    1
    17    31    32    1
    18    24    27    1
    19    27    28    1
    20    28    29    1
    21     4     5   ar
    22     8     9   ar
    23     9    10   ar
    24    10    11   ar
    25    11    12    1
    26    12    13   ar
    27    13    14   ar
    28    14    15   ar
    29    15    16    1
    30    15    17   ar
    31    11     6   ar
    32    17    12   ar
    33     5     1   ar
    34    26    22   ar
    35    29    23    1
    36    20    21    1
    37    32    33    1
@<TRIPOS>MOLECULE
*****
 33 37 0 0 0
SMALL
GASTEIGER

@<TRIPOS>ATOM
      1 C           1.0236    1.7496   20.1419 C.ar    1  UNL1        0.1074
      2 C           0.9483    1.2565   18.7273 C.ar    1  UNL1        0.0588
      3 S           2.3059    0.7494   18.3403 S.2     1  UNL1       -0.0508
      4 C           3.2202    0.9292   19.5158 C.ar    1  UNL1        0.1646
      5 N           2.4277    1.5473   20.6291 N.ar    1  UNL1       -0.2224
      6 C          -2.5677    3.1632   21.0662 C.ar    1  UNL1        0.2416
      7 N          -1.4373    2.5716   20.2774 N.ar    1  UNL1       -0.2089
      8 C          -0.1068    2.3412   20.9307 C.ar    1  UNL1        0.1026
      9 C           0.0933    2.7025   22.3728 C.ar    1  UNL1        0.0224
     10 C          -1.0371    3.2941   23.1616 C.ar    1  UNL1        0.0239
     11 C          -2.3676    3.5244   22.5083 C.ar    1  UNL1        0.1189
     12 N          -3.4980    4.1160   23.2971 N.ar    1  UNL1       -0.2826
     13 C          -4.6304    3.3556   23.9211 C.ar    1  UNL1        0.1826
     14 N          -5.5267    4.3415   24.6100 N.ar    1  UNL1       -0.2280
     15 C          -4.9482    5.7112   24.4118 C.ar    1  UNL1        0.0786
     16 C          -5.5227    6.9950   24.9334 C.3     1  UNL1        0.0538
     17 C          -3.6945    5.5718   23.6004 C.ar    1  UNL1        0.0963
     18 C          -4.2251    4.7365   19.8303 C.3     1  UNL1        0.2543
     19 O          -3.8982    3.3936   20.4129 O.3     1  UNL1       -0.4551
     20 N           4.6722    0.5562   19.5686 N.pl3   1  UNL1       -0.2786
     21 H           5.3150    1.1437   20.0279 H       1  UNL1        0.1555
     22 C           5.1449   -0.7118   18.9215 C.ar    1  UNL1        0.1276
     23 C           4.5925   -2.0850   19.1650 C.ar    1  UNL1        0.0244
     24 C           5.3591   -3.0511   18.3113 C.ar    1  UNL1        0.0773
     25 N           6.3853   -2.2751   17.5401 N.ar    1  UNL1       -0.1728
     26 N           6.2529   -0.8293   17.9172 N.ar    1  UNL1       -0.2357
     27 C           4.8067   -4.4243   18.5549 C.3     1  UNL1        0.0477
     28 C           3.6987   -4.3068   19.5591 C.3     1  UNL1        0.0112
     29 C           3.5663   -2.8610   19.9362 C.3     1  UNL1        0.0308
     30 C           7.0828    0.3005   17.3837 C.3     1  UNL1        0.1604
     31 C           6.4370    1.3931   16.5841 C.3     1  UNL1        0.1635
     32 O           5.6242    2.4477   17.2746 O.3     1  UNL1       -0.3799
     33 H           4.8336    2.0430   17.6645 H       1  UNL1        0.2105
@<TRIPOS>BOND
     1    18    19    1
     2    19     6    1
     3     6     7   ar
     4     7     8   ar
     5     8     1    1
     6     1     2   ar
     7     2     3   ar
     8     3     4   ar
     9     4    20    1
    10    20    22    1
    11    22    23   ar
    12    23    24   ar
    13    24    25   ar
    14    25    26   ar
    15    26    30    1
    16    30    31    1
    17    31    32    1
    18    24    27    1
    19    27    28    1
    20    28    29    1
    21     4     5   ar
    22     8     9   ar
    23     9    10   ar
    24    10    11   ar
    25    11    12    1
    26    12    13   ar
    27    13    14   ar
    28    14    15   ar
    29    15    16    1
    30    15    17   ar
    31    11     6   ar
    32    17    12   ar
    33     5     1   ar
    34    26    22   ar
    35    29    23    1
    36    20    21    1
    37    32    33    1
@<TRIPOS>MOLECULE
*****
 33 37 0 0 0
SMALL
GASTEIGER

@<TRIPOS>ATOM
      1 C           0.2221    2.1392   19.3659 C.ar    1  UNL1        0.1074
      2 C          -0.0076    2.9930   18.1541 C.ar    1  UNL1        0.0588
      3 S          -1.0626    4.0041   18.4928 S.2     1  UNL1       -0.0508
      4 C          -1.4849    3.7752   19.9138 C.ar    1  UNL1        0.1646
      5 N          -0.6909    2.6227   20.4534 N.ar    1  UNL1       -0.2224
      6 C           3.0644   -0.4645   18.4216 C.ar    1  UNL1        0.2416
      7 N           2.0924    0.6729   18.3160 N.ar    1  UNL1       -0.2089
      8 C           1.1942    1.0017   19.4715 C.ar    1  UNL1        0.1026
      9 C           1.2681    0.1929   20.7327 C.ar    1  UNL1        0.0224
     10 C           2.2401   -0.9446   20.8384 C.ar    1  UNL1        0.0239
     11 C           3.1383   -1.2733   19.6828 C.ar    1  UNL1        0.1189
     12 N           4.1104   -2.4108   19.7885 N.ar    1  UNL1       -0.2826
     13 C           3.8745   -3.8180   19.3257 C.ar    1  UNL1        0.1826
     14 N           5.1073   -4.6177   19.6266 N.ar    1  UNL1       -0.2280
     15 C           6.1051   -3.7048   20.2755 C.ar    1  UNL1        0.0786
     16 C           7.4780   -4.0884   20.7424 C.3     1  UNL1        0.0538
     17 C           5.4889   -2.3409   20.3755 C.ar    1  UNL1        0.0963
     18 C           5.3415   -0.2071   17.1977 C.3     1  UNL1        0.2543
     19 O           3.9626   -0.7933   17.2661 O.3     1  UNL1       -0.4551
     20 N          -2.5195    4.5609   20.6637 N.pl3   1  UNL1       -0.2786
     21 H          -2.2491    5.1481   21.4062 H       1  UNL1        0.1555
     22 C          -3.9661    4.4520   20.2821 C.ar    1  UNL1        0.1276
     23 C          -4.6005    5.0355   19.0545 C.ar    1  UNL1        0.0244
     24 C          -6.0587    4.6846   19.0749 C.ar    1  UNL1        0.0773
     25 N          -6.3256    3.8841   20.3151 N.ar    1  UNL1       -0.1728
     26 N          -5.0322    3.7404   21.0613 N.ar    1  UNL1       -0.2357
     27 C          -6.6932    5.2681   17.8473 C.3     1  UNL1        0.0477
     28 C          -5.6270    5.9797   17.0682 C.3     1  UNL1        0.0112
     29 C          -4.3337    5.8359   17.8143 C.3     1  UNL1        0.0308
     30 C          -4.8390    3.0128   22.3586 C.3     1  UNL1        0.1604
     31 C          -4.8766    3.7673   23.6545 C.3     1  UNL1        0.1635
     32 O          -5.5330    3.1586   24.8580 O.3     1  UNL1       -0.3799
     33 H          -6.4850    3.0674   24.6956 H       1  UNL1        0.2105
@<TRIPOS>BOND
     1    18    19    1
     2    19     6    1
     3     6     7   ar
     4     7     8   ar
     5     8     1    1
     6     1     2   ar
     7     2     3   ar
     8     3     4   ar
     9     4    20    1
    10    20    22    1
    11    22    23   ar
    12    23    24   ar
    13    24    25   ar
    14    25    26   ar
    15    26    30    1
    16    30    31    1
    17    31    32    1
    18    24    27    1
    19    27    28    1
    20    28    29    1
    21     4     5   ar
    22     8     9   ar
    23     9    10   ar
    24    10    11   ar
    25    11    12    1
    26    12    13   ar
    27    13    14   ar
    28    14    15   ar
    29    15    16    1
    30    15    17   ar
    31    11     6   ar
    32    17    12   ar
    33     5     1   ar
    34    26    22   ar
    35    29    23    1
    36    20    21    1
    37    32    33    1
@<TRIPOS>MOLECULE
*****
 33 37 0 0 0
SMALL
GASTEIGER

@<TRIPOS>ATOM
      1 C           4.8505   -3.5748   20.9812 C.ar    1  UNL1        0.1074
      2 C           4.0957   -4.6660   20.2815 C.ar    1  UNL1        0.0588
      3 S           3.6552   -4.1425   18.9466 S.2     1  UNL1       -0.0508
      4 C           4.1377   -2.7277   18.8214 C.ar    1  UNL1        0.1646
      5 N           4.8764   -2.3769   20.0788 N.ar    1  UNL1       -0.2224
      6 C           7.2128   -4.7193   23.9576 C.ar    1  UNL1        0.2416
      7 N           6.5929   -4.6286   22.5948 N.ar    1  UNL1       -0.2089
      8 C           5.4704   -3.6656   22.3440 C.ar    1  UNL1        0.1026
      9 C           4.9679   -2.7934   23.4562 C.ar    1  UNL1        0.0224
     10 C           5.5879   -2.8842   24.8191 C.ar    1  UNL1        0.0239
     11 C           6.7104   -3.8471   25.0698 C.ar    1  UNL1        0.1189
     12 N           7.3303   -3.9379   26.4327 N.ar    1  UNL1       -0.2826
     13 C           8.4084   -3.0453   26.9721 C.ar    1  UNL1        0.1826
     14 N           8.7254   -3.4930   28.3682 N.ar    1  UNL1       -0.2280
     15 C           7.8432   -4.6623   28.6916 C.ar    1  UNL1        0.0786
     16 C           7.8262   -5.4230   29.9843 C.3     1  UNL1        0.0538
     17 C           6.9810   -4.9372   27.4954 C.ar    1  UNL1        0.0963
     18 C           8.0372   -7.1265   24.4826 C.3     1  UNL1        0.2543
     19 O           8.3353   -5.6823   24.2084 O.3     1  UNL1       -0.4551
     20 N           3.9198   -1.8227   17.6451 N.pl3   1  UNL1       -0.2786
     21 H           3.6957   -2.2039   16.7655 H       1  UNL1        0.1555
     22 C           4.0433   -0.3368   17.8091 C.ar    1  UNL1        0.1276
     23 C           5.2791    0.4775   17.5650 C.ar    1  UNL1        0.0244
     24 C           4.9522    1.9133   17.8510 C.ar    1  UNL1        0.0773
     25 N           3.5144    1.9863   18.2720 N.ar    1  UNL1       -0.1728
     26 N           2.9525    0.5957   18.2461 N.ar    1  UNL1       -0.2357
     27 C           6.1880    2.7276   17.6068 C.3     1  UNL1        0.0477
     28 C           7.2787    1.7951   17.1699 C.3     1  UNL1        0.0112
     29 C           6.7169    0.4045   17.1440 C.3     1  UNL1        0.0308
     30 C           1.5470    0.2060   18.5958 C.3     1  UNL1        0.1604
     31 C           1.2090   -0.2028   19.9990 C.3     1  UNL1        0.1635
     32 O          -0.2093   -0.1272   20.4812 O.3     1  UNL1       -0.3799
     33 H          -0.4921    0.8003   20.5098 H       1  UNL1        0.2105
@<TRIPOS>BOND
     1    18    19    1
     2    19     6    1
     3     6     7   ar
     4     7     8   ar
     5     8     1    1
     6     1     2   ar
     7     2     3   ar
     8     3     4   ar
     9     4    20    1
    10    20    22    1
    11    22    23   ar
    12    23    24   ar
    13    24    25   ar
    14    25    26   ar
    15    26    30    1
    16    30    31    1
    17    31    32    1
    18    24    27    1
    19    27    28    1
    20    28    29    1
    21     4     5   ar
    22     8     9   ar
    23     9    10   ar
    24    10    11   ar
    25    11    12    1
    26    12    13   ar
    27    13    14   ar
    28    14    15   ar
    29    15    16    1
    30    15    17   ar
    31    11     6   ar
    32    17    12   ar
    33     5     1   ar
    34    26    22   ar
    35    29    23    1
    36    20    21    1
    37    32    33    1
