@<TRIPOS>MOLECULE
*****
 39 41 0 0 0
SMALL
GASTEIGER

@<TRIPOS>ATOM
      1 C           6.1110   -2.8709   26.3131 C.ar    1  UNL1        0.0097
      2 C           6.1207   -3.1380   27.7890 C.ar    1  UNL1        0.0099
      3 C           6.6398   -4.4449   28.3113 C.ar    1  UNL1        0.0575
      4 CL          6.6495   -4.7120   29.7874 Cl      1  UNL1       -0.0823
      5 C           7.1491   -5.4846   27.3576 C.ar    1  UNL1        0.0126
      6 C           7.1394   -5.2174   25.8817 C.ar    1  UNL1        0.0151
      7 C           6.6203   -3.9106   25.3594 C.ar    1  UNL1        0.0455
      8 N           6.6106   -3.6435   23.8834 N.pl3   1  UNL1       -0.3043
      9 C           5.3573   -3.8645   23.0894 C.3     1  UNL1        0.1123
     10 C           5.3476   -3.5974   21.6135 C.3     1  UNL1        0.1148
     11 N           6.5912   -3.1092   20.9313 N.am    1  UNL1       -0.2760
     12 C           6.5815   -2.8422   19.4554 C.2     1  UNL1        0.2256
     13 O           7.8250   -2.3540   18.7734 O.2     1  UNL1       -0.2749
     14 C           7.8445   -2.8882   21.7253 C.3     1  UNL1        0.1148
     15 C           7.8542   -3.1553   23.2013 C.3     1  UNL1        0.1123
     16 C           5.3281   -3.0632   18.6614 C.3     1  UNL1        0.0811
     17 C           4.7110   -4.4289   18.5990 C.3     1  UNL1        0.0099
     18 C           4.6920   -1.9186   17.9300 C.3     1  UNL1        0.0354
     19 C           3.5282   -1.1937   18.5384 C.ar    1  UNL1       -0.0217
     20 C           2.9803   -1.6337   19.8637 C.ar    1  UNL1       -0.0034
     21 C           1.8166   -0.9088   20.4721 C.ar    1  UNL1        0.0111
     22 C           1.2007    0.2561   19.7553 C.ar    1  UNL1        0.0577
     23 CL          0.0370    0.9810   20.3637 Cl      1  UNL1       -0.0822
     24 C           1.7486    0.6961   18.4301 C.ar    1  UNL1        0.0111
     25 C           2.9124   -0.0288   17.8217 C.ar    1  UNL1       -0.0034
     26 C           5.5919   -1.5641   25.7908 C.3     1  UNL1        0.0953
     27 N           6.5483   -0.4611   25.4461 N.am    1  UNL1       -0.3021
     28 C           6.4832    0.1941   24.0983 C.2     1  UNL1        0.2241
     29 O           7.4396    1.2971   23.7536 O.2     1  UNL1       -0.2750
     30 H           7.2187   -0.1672   26.1044 H       1  UNL1        0.1497
     31 C           5.4617   -0.2537   23.0953 C.3     1  UNL1        0.1023
     32 C           4.5554    0.7511   22.4481 C.3     1  UNL1        0.0818
     33 N           4.9164    1.3382   21.1158 N.3     1  UNL1       -0.2699
     34 C           6.0591    0.7674   20.3294 C.3     1  UNL1        0.0897
     35 C           4.1347    2.4963   20.5699 C.3     1  UNL1        0.0897
     36 C           4.1165   -1.3602   25.6133 C.3     1  UNL1        0.0242
     37 C           2.9286    0.9165   26.0080 C.3     1  UNL1        0.0001
     38 C           3.3748   -0.4216   26.5183 C.3     1  UNL1        0.0020
     39 C           3.0793   -0.8211   27.9336 C.3     1  UNL1        0.0001
@<TRIPOS>BOND
     1    37    38    1
     2    38    39    1
     3    38    36    1
     4    26    36    1
     5    26    27    1
     6    27    28   am
     7    28    29    2
     8    28    31    1
     9    31    32    1
    10    32    33    1
    11    33    34    1
    12    33    35    1
    13    26     1    1
    14     1     2   ar
    15     2     3   ar
    16     3     4    1
    17     3     5   ar
    18     5     6   ar
    19     6     7   ar
    20     7     8    1
    21     8     9    1
    22     9    10    1
    23    10    11    1
    24    11    12   am
    25    12    13    2
    26    12    16    1
    27    16    17    1
    28    16    18    1
    29    18    19    1
    30    19    20   ar
    31    20    21   ar
    32    21    22   ar
    33    22    23    1
    34    22    24   ar
    35    24    25   ar
    36    11    14    1
    37    14    15    1
    38     7     1   ar
    39    15     8    1
    40    25    19   ar
    41    27    30    1
@<TRIPOS>MOLECULE
*****
 39 41 0 0 0
SMALL
GASTEIGER

@<TRIPOS>ATOM
      1 C           6.5073   -2.9069   26.3882 C.ar    1  UNL1        0.0097
      2 C           6.5030   -3.1987   27.8595 C.ar    1  UNL1        0.0099
      3 C           6.6499   -4.6105   28.3446 C.ar    1  UNL1        0.0575
      4 CL          6.6457   -4.9023   29.8159 Cl      1  UNL1       -0.0823
      5 C           6.8011   -5.7305   27.3583 C.ar    1  UNL1        0.0126
      6 C           6.8053   -5.4386   25.8870 C.ar    1  UNL1        0.0151
      7 C           6.6584   -4.0268   25.4020 C.ar    1  UNL1        0.0455
      8 N           6.6626   -3.7351   23.9306 N.pl3   1  UNL1       -0.3043
      9 C           5.4109   -3.9218   23.1253 C.3     1  UNL1        0.1123
     10 C           5.4151   -3.6301   21.6540 C.3     1  UNL1        0.1148
     11 N           6.6711   -3.1515   20.9878 N.am    1  UNL1       -0.2760
     12 C           6.6752   -2.8598   19.5165 C.2     1  UNL1        0.2256
     13 O           7.9311   -2.3813   18.8504 O.2     1  UNL1       -0.2749
     14 C           7.9228   -2.9648   21.7931 C.3     1  UNL1        0.1148
     15 C           7.9185   -3.2566   23.2645 C.3     1  UNL1        0.1123
     16 C           5.4235   -3.0465   18.7113 C.3     1  UNL1        0.0811
     17 C           4.7801   -4.3989   18.6280 C.3     1  UNL1        0.0099
     18 C           4.8153   -1.8809   17.9894 C.3     1  UNL1        0.0354
     19 C           3.6159   -1.1863   18.5631 C.ar    1  UNL1       -0.0217
     20 C           3.0125   -0.0155   17.8452 C.ar    1  UNL1       -0.0034
     21 C           1.8132    0.6790   18.4189 C.ar    1  UNL1        0.0111
     22 C           1.2172    0.2029   19.7105 C.ar    1  UNL1        0.0577
     23 CL          0.0179    0.8974   20.2843 Cl      1  UNL1       -0.0822
     24 C           1.8206   -0.9678   20.4284 C.ar    1  UNL1        0.0111
     25 C           3.0200   -1.6624   19.8547 C.ar    1  UNL1       -0.0034
     26 C           6.3604   -1.4951   25.9032 C.3     1  UNL1        0.0953
     27 N           5.2495   -1.1376   24.9609 N.am    1  UNL1       -0.3021
     28 C           3.8529   -0.9630   25.4797 C.2     1  UNL1        0.2241
     29 O           2.7420   -0.6054   24.5373 O.2     1  UNL1       -0.2750
     30 H           5.4369   -1.0175   24.0019 H       1  UNL1        0.1497
     31 C           3.5673   -1.1460   26.9408 C.3     1  UNL1        0.1023
     32 C           3.0432    0.0018   27.7520 C.3     1  UNL1        0.0818
     33 N           2.1505   -0.2576   28.9291 N.3     1  UNL1       -0.2699
     34 C           2.7470   -0.6093   30.2598 C.3     1  UNL1        0.0897
     35 C           0.6612   -0.1654   28.7757 C.3     1  UNL1        0.0897
     36 C           7.3244   -0.4408   26.3604 C.3     1  UNL1        0.0242
     37 C           6.5738    2.0239   26.6949 C.3     1  UNL1        0.0001
     38 C           6.8562    0.6638   27.2609 C.3     1  UNL1        0.0020
     39 C           6.6706    0.4083   28.7272 C.3     1  UNL1        0.0001
@<TRIPOS>BOND
     1    37    38    1
     2    38    39    1
     3    38    36    1
     4    26    36    1
     5    26    27    1
     6    27    28   am
     7    28    29    2
     8    28    31    1
     9    31    32    1
    10    32    33    1
    11    33    34    1
    12    33    35    1
    13    26     1    1
    14     1     2   ar
    15     2     3   ar
    16     3     4    1
    17     3     5   ar
    18     5     6   ar
    19     6     7   ar
    20     7     8    1
    21     8     9    1
    22     9    10    1
    23    10    11    1
    24    11    12   am
    25    12    13    2
    26    12    16    1
    27    16    17    1
    28    16    18    1
    29    18    19    1
    30    19    20   ar
    31    20    21   ar
    32    21    22   ar
    33    22    23    1
    34    22    24   ar
    35    24    25   ar
    36    11    14    1
    37    14    15    1
    38     7     1   ar
    39    15     8    1
    40    25    19   ar
    41    27    30    1
@<TRIPOS>MOLECULE
*****
 39 41 0 0 0
SMALL
GASTEIGER

@<TRIPOS>ATOM
      1 C           7.0375   -3.7042   26.1236 C.ar    1  UNL1        0.0097
      2 C           7.4629   -4.1203   27.5005 C.ar    1  UNL1        0.0099
      3 C           8.1291   -5.4477   27.7106 C.ar    1  UNL1        0.0575
      4 CL          8.5546   -5.8638   29.0876 Cl      1  UNL1       -0.0823
      5 C           8.3698   -6.3591   26.5438 C.ar    1  UNL1        0.0126
      6 C           7.9443   -5.9430   25.1669 C.ar    1  UNL1        0.0151
      7 C           7.2782   -4.6156   24.9569 C.ar    1  UNL1        0.0455
      8 N           6.8527   -4.1995   23.5799 N.pl3   1  UNL1       -0.3043
      9 C           5.3952   -4.0500   23.2584 C.3     1  UNL1        0.1123
     10 C           4.9697   -3.6340   21.8815 C.3     1  UNL1        0.1148
     11 N           6.0017   -3.3674   20.8261 N.am    1  UNL1       -0.2760
     12 C           5.5762   -2.9514   19.4492 C.2     1  UNL1        0.2256
     13 O           6.6082   -2.6849   18.3938 O.2     1  UNL1       -0.2749
     14 C           7.4592   -3.5169   21.1475 C.3     1  UNL1        0.1148
     15 C           7.8847   -3.9330   22.5245 C.3     1  UNL1        0.1123
     16 C           4.1187   -2.8019   19.1277 C.3     1  UNL1        0.0811
     17 C           3.2378   -4.0140   19.0585 C.3     1  UNL1        0.0099
     18 C           3.5422   -1.4404   18.8754 C.3     1  UNL1        0.0354
     19 C           2.7944   -0.7290   19.9639 C.ar    1  UNL1       -0.0217
     20 C           1.3272   -0.4567   19.8116 C.ar    1  UNL1       -0.0034
     21 C           0.5794    0.2546   20.9001 C.ar    1  UNL1        0.0111
     22 C           1.2989    0.6936   22.1410 C.ar    1  UNL1        0.0577
     23 CL          0.5512    1.4049   23.2295 Cl      1  UNL1       -0.0822
     24 C           2.7661    0.4213   22.2933 C.ar    1  UNL1        0.0111
     25 C           3.5138   -0.2900   21.2047 C.ar    1  UNL1       -0.0034
     26 C           6.3713   -2.3768   25.9135 C.3     1  UNL1        0.0953
     27 N           4.9141   -2.2108   26.2279 N.am    1  UNL1       -0.3021
     28 C           4.4931   -1.5786   27.5214 C.2     1  UNL1        0.2241
     29 O           3.0357   -1.4127   27.8357 O.2     1  UNL1       -0.2750
     30 H           4.2339   -2.5168   25.5852 H       1  UNL1        0.1497
     31 C           5.5293   -1.1124   28.5005 C.3     1  UNL1        0.1023
     32 C           5.4988   -1.6059   29.9167 C.3     1  UNL1        0.0818
     33 N           6.7006   -2.2889   30.4989 N.3     1  UNL1       -0.2699
     34 C           6.5494   -3.6097   31.1938 C.3     1  UNL1        0.0897
     35 C           8.0537   -1.6513   30.3863 C.3     1  UNL1        0.0897
     36 C           7.1624   -1.2153   25.3891 C.3     1  UNL1        0.0242
     37 C           5.7401    0.9158   24.9582 C.3     1  UNL1        0.0001
     38 C           6.5297   -0.2469   24.4341 C.3     1  UNL1        0.0020
     39 C           6.6865   -0.4413   22.9551 C.3     1  UNL1        0.0001
@<TRIPOS>BOND
     1    37    38    1
     2    38    39    1
     3    38    36    1
     4    26    36    1
     5    26    27    1
     6    27    28   am
     7    28    29    2
     8    28    31    1
     9    31    32    1
    10    32    33    1
    11    33    34    1
    12    33    35    1
    13    26     1    1
    14     1     2   ar
    15     2     3   ar
    16     3     4    1
    17     3     5   ar
    18     5     6   ar
    19     6     7   ar
    20     7     8    1
    21     8     9    1
    22     9    10    1
    23    10    11    1
    24    11    12   am
    25    12    13    2
    26    12    16    1
    27    16    17    1
    28    16    18    1
    29    18    19    1
    30    19    20   ar
    31    20    21   ar
    32    21    22   ar
    33    22    23    1
    34    22    24   ar
    35    24    25   ar
    36    11    14    1
    37    14    15    1
    38     7     1   ar
    39    15     8    1
    40    25    19   ar
    41    27    30    1
@<TRIPOS>MOLECULE
*****
 39 41 0 0 0
SMALL
GASTEIGER

@<TRIPOS>ATOM
      1 C           6.1392   -3.0331   26.3401 C.ar    1  UNL1        0.0097
      2 C           6.1553   -3.3374   27.8087 C.ar    1  UNL1        0.0099
      3 C           6.6887   -4.6518   28.2965 C.ar    1  UNL1        0.0575
      4 CL          6.7049   -4.9562   29.7652 Cl      1  UNL1       -0.0823
      5 C           7.2059   -5.6618   27.3155 C.ar    1  UNL1        0.0126
      6 C           7.1898   -5.3575   25.8469 C.ar    1  UNL1        0.0151
      7 C           6.6564   -4.0431   25.3591 C.ar    1  UNL1        0.0455
      8 N           6.6402   -3.7388   23.8904 N.pl3   1  UNL1       -0.3043
      9 C           5.3847   -3.9439   23.0957 C.3     1  UNL1        0.1123
     10 C           5.3685   -3.6396   21.6270 C.3     1  UNL1        0.1148
     11 N           6.6079   -3.1301   20.9529 N.am    1  UNL1       -0.2760
     12 C           6.5917   -2.8258   19.4842 C.2     1  UNL1        0.2256
     13 O           7.8310   -2.3163   18.8102 O.2     1  UNL1       -0.2749
     14 C           7.8634   -2.9249   21.7476 C.3     1  UNL1        0.1148
     15 C           7.8796   -3.2293   23.2163 C.3     1  UNL1        0.1123
     16 C           5.3361   -3.0310   18.6896 C.3     1  UNL1        0.0811
     17 C           4.6926   -4.3850   18.6402 C.3     1  UNL1        0.0099
     18 C           4.7240   -1.8822   17.9443 C.3     1  UNL1        0.0354
     19 C           3.5396   -1.1621   18.5176 C.ar    1  UNL1       -0.0217
     20 C           3.0112    0.0687   17.8422 C.ar    1  UNL1       -0.0034
     21 C           1.8268    0.7888   18.4155 C.ar    1  UNL1        0.0111
     22 C           1.1708    0.2781   19.6641 C.ar    1  UNL1        0.0577
     23 CL         -0.0136    0.9982   20.2374 Cl      1  UNL1       -0.0822
     24 C           1.6993   -0.9526   20.3394 C.ar    1  UNL1        0.0111
     25 C           2.8837   -1.6727   19.7661 C.ar    1  UNL1       -0.0034
     26 C           5.6058   -1.7187   25.8523 C.3     1  UNL1        0.0953
     27 N           6.5515   -0.6525   25.3846 N.am    1  UNL1       -0.3021
     28 C           7.0159    0.4088   26.3374 C.2     1  UNL1        0.2241
     29 O           7.9617    1.4750   25.8696 O.2     1  UNL1       -0.2750
     30 H           6.8675   -0.6494   24.4522 H       1  UNL1        0.1497
     31 C           6.5345    0.4040   27.7580 C.3     1  UNL1        0.1023
     32 C           5.4349    1.3327   28.1805 C.3     1  UNL1        0.0818
     33 N           4.2352    0.7951   28.9027 N.3     1  UNL1       -0.2699
     34 C           3.0137    1.6500   29.0677 C.3     1  UNL1        0.0897
     35 C           4.2568   -0.5974   29.4599 C.3     1  UNL1        0.0897
     36 C           4.1266   -1.4704   25.8323 C.3     1  UNL1        0.0242
     37 C           3.0897    0.8628   25.3515 C.3     1  UNL1        0.0001
     38 C           3.5451   -0.4814   24.8660 C.3     1  UNL1        0.0020
     39 C           3.4189   -0.8367   23.4141 C.3     1  UNL1        0.0001
@<TRIPOS>BOND
     1    37    38    1
     2    38    39    1
     3    38    36    1
     4    26    36    1
     5    26    27    1
     6    27    28   am
     7    28    29    2
     8    28    31    1
     9    31    32    1
    10    32    33    1
    11    33    34    1
    12    33    35    1
    13    26     1    1
    14     1     2   ar
    15     2     3   ar
    16     3     4    1
    17     3     5   ar
    18     5     6   ar
    19     6     7   ar
    20     7     8    1
    21     8     9    1
    22     9    10    1
    23    10    11    1
    24    11    12   am
    25    12    13    2
    26    12    16    1
    27    16    17    1
    28    16    18    1
    29    18    19    1
    30    19    20   ar
    31    20    21   ar
    32    21    22   ar
    33    22    23    1
    34    22    24   ar
    35    24    25   ar
    36    11    14    1
    37    14    15    1
    38     7     1   ar
    39    15     8    1
    40    25    19   ar
    41    27    30    1
@<TRIPOS>MOLECULE
*****
 39 41 0 0 0
SMALL
GASTEIGER

@<TRIPOS>ATOM
      1 C           6.1832   -3.0273   26.3464 C.ar    1  UNL1        0.0097
      2 C           6.1904   -3.3327   27.8149 C.ar    1  UNL1        0.0099
      3 C           6.6454   -4.6776   28.2990 C.ar    1  UNL1        0.0575
      4 CL          6.6526   -4.9830   29.7677 Cl      1  UNL1       -0.0823
      5 C           7.0931   -5.7170   27.3147 C.ar    1  UNL1        0.0126
      6 C           7.0859   -5.4116   25.8461 C.ar    1  UNL1        0.0151
      7 C           6.6309   -4.0667   25.3620 C.ar    1  UNL1        0.0455
      8 N           6.6237   -3.7614   23.8934 N.pl3   1  UNL1       -0.3043
      9 C           5.3701   -3.9560   23.0930 C.3     1  UNL1        0.1123
     10 C           5.3628   -3.6507   21.6245 C.3     1  UNL1        0.1148
     11 N           6.6092   -3.1506   20.9562 N.am    1  UNL1       -0.2760
     12 C           6.6019   -2.8453   19.4877 C.2     1  UNL1        0.2256
     13 O           7.8483   -2.3452   18.8195 O.2     1  UNL1       -0.2749
     14 C           7.8628   -2.9560   21.7565 C.3     1  UNL1        0.1148
     15 C           7.8700   -3.2613   23.2252 C.3     1  UNL1        0.1123
     16 C           5.3483   -3.0399   18.6873 C.3     1  UNL1        0.0811
     17 C           4.7106   -4.3954   18.6102 C.3     1  UNL1        0.0099
     18 C           4.7323   -1.8791   17.9642 C.3     1  UNL1        0.0354
     19 C           3.5550   -1.1645   18.5585 C.ar    1  UNL1       -0.0217
     20 C           3.0279   -1.5754   19.9014 C.ar    1  UNL1       -0.0034
     21 C           1.8505   -0.8608   20.4957 C.ar    1  UNL1        0.0111
     22 C           1.2003    0.2648   19.7470 C.ar    1  UNL1        0.0577
     23 CL          0.0230    0.9794   20.3413 Cl      1  UNL1       -0.0822
     24 C           1.7274    0.6757   18.4042 C.ar    1  UNL1        0.0111
     25 C           2.9048   -0.0390   17.8099 C.ar    1  UNL1       -0.0034
     26 C           5.7282   -1.6825   25.8622 C.3     1  UNL1        0.0953
     27 N           4.2790   -1.4466   25.5556 N.am    1  UNL1       -0.3021
     28 C           3.8843   -0.7535   24.2852 C.2     1  UNL1        0.2241
     29 O           2.4350   -0.5176   23.9785 O.2     1  UNL1       -0.2750
     30 H           3.5868   -1.7468   26.1880 H       1  UNL1        0.1497
     31 C           4.9389   -0.2962   23.3215 C.3     1  UNL1        0.1023
     32 C           4.8814    1.0888   22.7485 C.3     1  UNL1        0.0818
     33 N           5.1245    1.3054   21.2842 N.3     1  UNL1       -0.2699
     34 C           4.2950    2.2982   20.5251 C.3     1  UNL1        0.0897
     35 C           6.1970    0.5291   20.5791 C.3     1  UNL1        0.0897
     36 C           6.7224   -0.5735   25.6848 C.3     1  UNL1        0.0242
     37 C           7.9840   -0.0405   27.8926 C.3     1  UNL1        0.0001
     38 C           7.9894   -0.5664   26.4879 C.3     1  UNL1        0.0020
     39 C           9.2617   -1.0851   25.8861 C.3     1  UNL1        0.0001
@<TRIPOS>BOND
     1    37    38    1
     2    38    39    1
     3    38    36    1
     4    26    36    1
     5    26    27    1
     6    27    28   am
     7    28    29    2
     8    28    31    1
     9    31    32    1
    10    32    33    1
    11    33    34    1
    12    33    35    1
    13    26     1    1
    14     1     2   ar
    15     2     3   ar
    16     3     4    1
    17     3     5   ar
    18     5     6   ar
    19     6     7   ar
    20     7     8    1
    21     8     9    1
    22     9    10    1
    23    10    11    1
    24    11    12   am
    25    12    13    2
    26    12    16    1
    27    16    17    1
    28    16    18    1
    29    18    19    1
    30    19    20   ar
    31    20    21   ar
    32    21    22   ar
    33    22    23    1
    34    22    24   ar
    35    24    25   ar
    36    11    14    1
    37    14    15    1
    38     7     1   ar
    39    15     8    1
    40    25    19   ar
    41    27    30    1
@<TRIPOS>MOLECULE
*****
 39 41 0 0 0
SMALL
GASTEIGER

@<TRIPOS>ATOM
      1 C           3.3329   -1.4231   20.7336 C.ar    1  UNL1        0.0097
      2 C           3.4403   -2.5165   19.7125 C.ar    1  UNL1        0.0099
      3 C           4.0841   -3.8216   20.0761 C.ar    1  UNL1        0.0575
      4 CL          4.1915   -4.9152   19.0548 Cl      1  UNL1       -0.0823
      5 C           4.6205   -4.0333   21.4608 C.ar    1  UNL1        0.0126
      6 C           4.5131   -2.9398   22.4819 C.ar    1  UNL1        0.0151
      7 C           3.8693   -1.6347   22.1183 C.ar    1  UNL1        0.0455
      8 N           3.7619   -0.5412   23.1395 N.pl3   1  UNL1       -0.3043
      9 C           2.4634   -0.3059   23.8527 C.3     1  UNL1        0.1123
     10 C           2.3560    0.7875   24.8738 C.3     1  UNL1        0.1148
     11 N           3.5471    1.6458   25.1819 N.am    1  UNL1       -0.2760
     12 C           3.4396    2.7392   26.2030 C.2     1  UNL1        0.2256
     13 O           4.6307    3.5974   26.5110 O.2     1  UNL1       -0.2749
     14 C           4.8455    1.4105   24.4687 C.3     1  UNL1        0.1148
     15 C           4.9529    0.3170   23.4475 C.3     1  UNL1        0.1123
     16 C           2.1412    2.9744   26.9162 C.3     1  UNL1        0.0811
     17 C           1.6967    2.0322   27.9953 C.3     1  UNL1        0.0099
     18 C           1.2871    4.1520   26.5502 C.3     1  UNL1        0.0354
     19 C          -0.0809    3.9361   25.9741 C.ar    1  UNL1       -0.0217
     20 C          -0.2503    3.7428   24.4962 C.ar    1  UNL1       -0.0034
     21 C          -1.6183    3.5269   23.9200 C.ar    1  UNL1        0.0111
     22 C          -2.8169    3.5044   24.8217 C.ar    1  UNL1        0.0577
     23 CL         -4.1849    3.2885   24.2455 Cl      1  UNL1       -0.0822
     24 C          -2.6474    3.6976   26.2995 C.ar    1  UNL1        0.0111
     25 C          -1.2794    3.9135   26.8757 C.ar    1  UNL1       -0.0034
     26 C           2.6891   -0.1179   20.3700 C.3     1  UNL1        0.0953
     27 N           3.5237    1.1227   20.2514 N.am    1  UNL1       -0.3021
     28 C           4.2582    1.4136   18.9763 C.2     1  UNL1        0.2241
     29 O           5.0928    2.6543   18.8578 O.2     1  UNL1       -0.2750
     30 H           3.5895    1.7462   21.0106 H       1  UNL1        0.1497
     31 C           4.1580    0.4637   17.8197 C.3     1  UNL1        0.1023
     32 C           5.3793    0.1299   17.0154 C.3     1  UNL1        0.0818
     33 N           6.6023   -0.4080   17.6971 N.3     1  UNL1       -0.2699
     34 C           6.6603   -1.8502   18.1054 C.3     1  UNL1        0.0897
     35 C           7.7675    0.4963   17.9706 C.3     1  UNL1        0.0897
     36 C           1.2107   -0.0535   20.1250 C.3     1  UNL1        0.0242
     37 C           0.6332    1.7560   18.3523 C.3     1  UNL1        0.0001
     38 C           0.5665    1.2521   19.7635 C.3     1  UNL1        0.0020
     39 C          -0.1443    2.0537   20.8134 C.3     1  UNL1        0.0001
@<TRIPOS>BOND
     1    37    38    1
     2    38    39    1
     3    38    36    1
     4    26    36    1
     5    26    27    1
     6    27    28   am
     7    28    29    2
     8    28    31    1
     9    31    32    1
    10    32    33    1
    11    33    34    1
    12    33    35    1
    13    26     1    1
    14     1     2   ar
    15     2     3   ar
    16     3     4    1
    17     3     5   ar
    18     5     6   ar
    19     6     7   ar
    20     7     8    1
    21     8     9    1
    22     9    10    1
    23    10    11    1
    24    11    12   am
    25    12    13    2
    26    12    16    1
    27    16    17    1
    28    16    18    1
    29    18    19    1
    30    19    20   ar
    31    20    21   ar
    32    21    22   ar
    33    22    23    1
    34    22    24   ar
    35    24    25   ar
    36    11    14    1
    37    14    15    1
    38     7     1   ar
    39    15     8    1
    40    25    19   ar
    41    27    30    1
@<TRIPOS>MOLECULE
*****
 39 41 0 0 0
SMALL
GASTEIGER

@<TRIPOS>ATOM
      1 C           5.1397   -1.6096   26.0743 C.ar    1  UNL1        0.0097
      2 C           5.2575   -2.0759   27.4951 C.ar    1  UNL1        0.0099
      3 C           6.2303   -3.1610   27.8502 C.ar    1  UNL1        0.0575
      4 CL          6.3480   -3.6273   29.2710 Cl      1  UNL1       -0.0823
      5 C           7.0853   -3.7800   26.7844 C.ar    1  UNL1        0.0126
      6 C           6.9676   -3.3137   25.3636 C.ar    1  UNL1        0.0151
      7 C           5.9948   -2.2285   25.0086 C.ar    1  UNL1        0.0455
      8 N           5.8770   -1.7623   23.5877 N.pl3   1  UNL1       -0.3043
      9 C           5.0064   -2.5108   22.6224 C.3     1  UNL1        0.1123
     10 C           4.8887   -2.0447   21.2016 C.3     1  UNL1        0.1148
     11 N           5.6416   -0.8299   20.7460 N.am    1  UNL1       -0.2760
     12 C           5.5238   -0.3637   19.3252 C.2     1  UNL1        0.2256
     13 O           6.2767    0.8510   18.8696 O.2     1  UNL1       -0.2749
     14 C           6.5122   -0.0813   21.7112 C.3     1  UNL1        0.1148
     15 C           6.6299   -0.5476   23.1321 C.3     1  UNL1        0.1123
     16 C           4.6532   -1.1122   18.3599 C.3     1  UNL1        0.0811
     17 C           4.9954   -2.5221   17.9791 C.3     1  UNL1        0.0099
     18 C           3.4404   -0.4509   17.7755 C.3     1  UNL1        0.0354
     19 C           2.4497    0.2278   18.6743 C.ar    1  UNL1       -0.0217
     20 C           2.2728    1.7159   18.6075 C.ar    1  UNL1       -0.0034
     21 C           1.2821    2.3945   19.5064 C.ar    1  UNL1        0.0111
     22 C           0.4683    1.5850   20.4721 C.ar    1  UNL1        0.0577
     23 CL         -0.5224    2.2637   21.3710 Cl      1  UNL1       -0.0822
     24 C           0.6451    0.0970   20.5389 C.ar    1  UNL1        0.0111
     25 C           1.6358   -0.5816   19.6400 C.ar    1  UNL1       -0.0034
     26 C           4.1669   -0.5245   25.7192 C.3     1  UNL1        0.0953
     27 N           4.2158    0.7912   26.4379 N.am    1  UNL1       -0.3021
     28 C           3.2601    1.0687   27.5602 C.2     1  UNL1        0.2241
     29 O           3.3090    2.3845   28.2789 O.2     1  UNL1       -0.2750
     30 H           4.8751    1.4726   26.1730 H       1  UNL1        0.1497
     31 C           2.2555    0.0305   27.9639 C.3     1  UNL1        0.1023
     32 C           1.1585    0.3820   28.9246 C.3     1  UNL1        0.0818
     33 N          -0.2521    0.5213   28.4339 N.3     1  UNL1       -0.2699
     34 C          -0.6333    1.6848   27.5674 C.3     1  UNL1        0.0897
     35 C          -1.2816   -0.5030   28.8099 C.3     1  UNL1        0.0897
     36 C           3.1453   -0.7550   24.6455 C.3     1  UNL1        0.0242
     37 C           3.2768    1.0984   22.8295 C.3     1  UNL1        0.0001
     38 C           2.5285    0.4127   23.9339 C.3     1  UNL1        0.0020
     39 C           1.1634    0.8945   24.3268 C.3     1  UNL1        0.0001
@<TRIPOS>BOND
     1    37    38    1
     2    38    39    1
     3    38    36    1
     4    26    36    1
     5    26    27    1
     6    27    28   am
     7    28    29    2
     8    28    31    1
     9    31    32    1
    10    32    33    1
    11    33    34    1
    12    33    35    1
    13    26     1    1
    14     1     2   ar
    15     2     3   ar
    16     3     4    1
    17     3     5   ar
    18     5     6   ar
    19     6     7   ar
    20     7     8    1
    21     8     9    1
    22     9    10    1
    23    10    11    1
    24    11    12   am
    25    12    13    2
    26    12    16    1
    27    16    17    1
    28    16    18    1
    29    18    19    1
    30    19    20   ar
    31    20    21   ar
    32    21    22   ar
    33    22    23    1
    34    22    24   ar
    35    24    25   ar
    36    11    14    1
    37    14    15    1
    38     7     1   ar
    39    15     8    1
    40    25    19   ar
    41    27    30    1
@<TRIPOS>MOLECULE
*****
 39 41 0 0 0
SMALL
GASTEIGER

@<TRIPOS>ATOM
      1 C           5.1235   -0.3818   20.2098 C.ar    1  UNL1        0.0097
      2 C           4.8097    0.7798   19.3141 C.ar    1  UNL1        0.0099
      3 C           5.9209    1.6221   18.7611 C.ar    1  UNL1        0.0575
      4 CL          5.6070    2.7837   17.8654 Cl      1  UNL1       -0.0823
      5 C           7.3458    1.3028   19.1038 C.ar    1  UNL1        0.0126
      6 C           7.6596    0.1413   19.9995 C.ar    1  UNL1        0.0151
      7 C           6.5484   -0.7010   20.5525 C.ar    1  UNL1        0.0455
      8 N           6.8623   -1.8626   21.4482 N.pl3   1  UNL1       -0.3043
      9 C           6.9670   -1.6596   22.9307 C.3     1  UNL1        0.1123
     10 C           7.2808   -2.8211   23.8265 C.3     1  UNL1        0.1148
     11 N           7.4899   -4.1857   23.2397 N.am    1  UNL1       -0.2760
     12 C           7.8038   -5.3472   24.1354 C.2     1  UNL1        0.2256
     13 O           8.0129   -6.7117   23.5486 O.2     1  UNL1       -0.2749
     14 C           7.3852   -4.3887   21.7572 C.3     1  UNL1        0.1148
     15 C           7.0714   -3.2271   20.8614 C.3     1  UNL1        0.1123
     16 C           7.9085   -5.1442   25.6179 C.3     1  UNL1        0.0811
     17 C           9.2073   -4.7029   26.2246 C.3     1  UNL1        0.0099
     18 C           6.7143   -5.3826   26.4938 C.3     1  UNL1        0.0354
     19 C           6.7309   -4.9305   27.9239 C.ar    1  UNL1       -0.0217
     20 C           7.0211   -5.9145   29.0183 C.ar    1  UNL1       -0.0034
     21 C           7.0377   -5.4624   30.4484 C.ar    1  UNL1        0.0111
     22 C           6.7640   -4.0262   30.7842 C.ar    1  UNL1        0.0577
     23 CL          6.7806   -3.5741   32.2143 Cl      1  UNL1       -0.0822
     24 C           6.4738   -3.0423   29.6899 C.ar    1  UNL1        0.0111
     25 C           6.4572   -3.4944   28.2597 C.ar    1  UNL1       -0.0034
     26 C           4.0123   -1.2241   20.7628 C.3     1  UNL1        0.0953
     27 N           3.6675   -1.1477   22.2206 N.am    1  UNL1       -0.3021
     28 C           2.6613   -0.1447   22.7018 C.2     1  UNL1        0.2241
     29 O           2.3166   -0.0684   24.1597 O.2     1  UNL1       -0.2750
     30 H           4.1016   -1.7560   22.8616 H       1  UNL1        0.1497
     31 C           2.0000    0.7820   21.7252 C.3     1  UNL1        0.1023
     32 C           0.5120    0.9686   21.7581 C.3     1  UNL1        0.0818
     33 N          -0.0714    2.2575   22.2564 N.3     1  UNL1       -0.2699
     34 C          -0.7506    3.1926   21.3002 C.3     1  UNL1        0.0897
     35 C           0.0244    2.6114   23.7109 C.3     1  UNL1        0.0897
     36 C           3.2459   -2.1427   19.8580 C.3     1  UNL1        0.0242
     37 C           4.9202   -2.9118   18.0263 C.3     1  UNL1        0.0001
     38 C           3.9581   -3.2429   19.1283 C.3     1  UNL1        0.0020
     39 C           3.7081   -4.6743   19.5008 C.3     1  UNL1        0.0001
@<TRIPOS>BOND
     1    37    38    1
     2    38    39    1
     3    38    36    1
     4    26    36    1
     5    26    27    1
     6    27    28   am
     7    28    29    2
     8    28    31    1
     9    31    32    1
    10    32    33    1
    11    33    34    1
    12    33    35    1
    13    26     1    1
    14     1     2   ar
    15     2     3   ar
    16     3     4    1
    17     3     5   ar
    18     5     6   ar
    19     6     7   ar
    20     7     8    1
    21     8     9    1
    22     9    10    1
    23    10    11    1
    24    11    12   am
    25    12    13    2
    26    12    16    1
    27    16    17    1
    28    16    18    1
    29    18    19    1
    30    19    20   ar
    31    20    21   ar
    32    21    22   ar
    33    22    23    1
    34    22    24   ar
    35    24    25   ar
    36    11    14    1
    37    14    15    1
    38     7     1   ar
    39    15     8    1
    40    25    19   ar
    41    27    30    1
@<TRIPOS>MOLECULE
*****
 39 41 0 0 0
SMALL
GASTEIGER

@<TRIPOS>ATOM
      1 C           4.3295   -0.2959   19.9453 C.ar    1  UNL1        0.0097
      2 C           4.8000   -0.1112   18.5330 C.ar    1  UNL1        0.0099
      3 C           6.0228    0.7105   18.2513 C.ar    1  UNL1        0.0575
      4 CL          6.4933    0.8951   16.8389 Cl      1  UNL1       -0.0823
      5 C           6.7752    1.3475   19.3817 C.ar    1  UNL1        0.0126
      6 C           6.3048    1.1629   20.7940 C.ar    1  UNL1        0.0151
      7 C           5.0819    0.3412   21.0758 C.ar    1  UNL1        0.0455
      8 N           4.6115    0.1565   22.4881 N.pl3   1  UNL1       -0.3043
      9 C           3.8757    1.2629   23.1842 C.3     1  UNL1        0.1123
     10 C           3.4053    1.0783   24.5965 C.3     1  UNL1        0.1148
     11 N           3.6706   -0.2127   25.3127 N.am    1  UNL1       -0.2760
     12 C           3.2001   -0.3973   26.7250 C.2     1  UNL1        0.2256
     13 O           3.4654   -1.6883   27.4412 O.2     1  UNL1       -0.2749
     14 C           4.4063   -1.3191   24.6166 C.3     1  UNL1        0.1148
     15 C           4.8768   -1.1345   23.2043 C.3     1  UNL1        0.1123
     16 C           2.4644    0.7091   27.4211 C.3     1  UNL1        0.0811
     17 C           3.2212    1.8766   27.9814 C.3     1  UNL1        0.0099
     18 C           0.9719    0.6479   27.5570 C.3     1  UNL1        0.0354
     19 C           0.1091    1.6068   26.7913 C.ar    1  UNL1       -0.0217
     20 C          -0.0148    1.4792   25.3018 C.ar    1  UNL1       -0.0034
     21 C          -0.8775    2.4380   24.5362 C.ar    1  UNL1        0.0111
     22 C          -1.6163    3.5245   25.2600 C.ar    1  UNL1        0.0577
     23 CL         -2.4790    4.4834   24.4943 Cl      1  UNL1       -0.0822
     24 C          -1.4924    3.6521   26.7493 C.ar    1  UNL1        0.0111
     25 C          -0.6296    2.6932   27.5150 C.ar    1  UNL1       -0.0034
     26 C           3.1067   -1.1176   20.2271 C.3     1  UNL1        0.0953
     27 N           1.9700   -0.5274   21.0079 N.am    1  UNL1       -0.3021
     28 C           0.9417    0.3160   20.3142 C.2     1  UNL1        0.2241
     29 O          -0.1950    0.9062   21.0951 O.2     1  UNL1       -0.2750
     30 H           1.8990   -0.6936   21.9757 H       1  UNL1        0.1497
     31 C           1.0500    0.5693   18.8398 C.3     1  UNL1        0.1023
     32 C           0.7798    1.9394   18.2923 C.3     1  UNL1        0.0818
     33 N           1.5458    3.1194   18.8125 N.3     1  UNL1       -0.2699
     34 C           3.0440    3.1326   18.7393 C.3     1  UNL1        0.0897
     35 C           0.8137    4.2864   19.4061 C.3     1  UNL1        0.0897
     36 C           3.0204   -2.5295   19.7280 C.3     1  UNL1        0.0242
     37 C           4.5341   -3.9893   21.2539 C.3     1  UNL1        0.0001
     38 C           4.1877   -3.4566   19.8951 C.3     1  UNL1        0.0020
     39 C           5.0087   -3.8511   18.7033 C.3     1  UNL1        0.0001
@<TRIPOS>BOND
     1    37    38    1
     2    38    39    1
     3    38    36    1
     4    26    36    1
     5    26    27    1
     6    27    28   am
     7    28    29    2
     8    28    31    1
     9    31    32    1
    10    32    33    1
    11    33    34    1
    12    33    35    1
    13    26     1    1
    14     1     2   ar
    15     2     3   ar
    16     3     4    1
    17     3     5   ar
    18     5     6   ar
    19     6     7   ar
    20     7     8    1
    21     8     9    1
    22     9    10    1
    23    10    11    1
    24    11    12   am
    25    12    13    2
    26    12    16    1
    27    16    17    1
    28    16    18    1
    29    18    19    1
    30    19    20   ar
    31    20    21   ar
    32    21    22   ar
    33    22    23    1
    34    22    24   ar
    35    24    25   ar
    36    11    14    1
    37    14    15    1
    38     7     1   ar
    39    15     8    1
    40    25    19   ar
    41    27    30    1
