@<TRIPOS>MOLECULE
*****
 40 44 0 0 0
SMALL
GASTEIGER

@<TRIPOS>ATOM
      1 C           2.3846    1.2069   19.7070 C.3     1  UNL1        0.0771
      2 C           2.2244    0.0382   18.7804 C.3     1  UNL1        0.0370
      3 C           3.0949   -1.1725   18.9430 C.3     1  UNL1        0.0738
      4 N           4.1255   -1.2146   20.0320 N.3     1  UNL1       -0.2725
      5 C           4.2857   -0.0459   20.9586 C.3     1  UNL1        0.0751
      6 C           3.4152    1.1648   20.7960 C.3     1  UNL1        0.0500
      7 N          -0.7785    3.5989   19.8579 N.am    1  UNL1       -0.2485
      8 C           0.0919    2.3882   20.0204 C.2     1  UNL1        0.3058
      9 O          -0.4598    1.1480   20.6587 O.2     1  UNL1       -0.2524
     10 N           1.5141    2.4177   19.5445 N.am    1  UNL1       -0.2901
     11 H          -0.4164    4.4129   19.4389 H       1  UNL1        0.1583
     12 H           1.8763    3.2316   19.1255 H       1  UNL1        0.1509
     13 C          -4.6226    3.7208   20.3809 C.ar    1  UNL1        0.0803
     14 S          -3.4142    3.8703   19.5049 S.2     1  UNL1       -0.0488
     15 C          -2.2007    3.5695   20.3338 C.ar    1  UNL1        0.1664
     16 N          -2.6592    3.2341   21.7220 N.ar    1  UNL1       -0.2282
     17 C          -4.1560    3.3276   21.7512 C.ar    1  UNL1        0.0701
     18 C          -5.0323    3.0726   22.9416 C.3     1  UNL1        0.0528
     19 C          -6.5855    3.2139   18.7560 C.3     1  UNL1        0.0779
     20 C          -6.0475    3.9280   19.9604 C.2     1  UNL1        0.1807
     21 O          -6.9343    4.8494   20.7443 O.2     1  UNL1       -0.2908
     22 C           4.9959   -2.4254   20.1945 C.3     1  UNL1        0.0720
     23 C           4.5346   -3.7556   19.6773 C.3     1  UNL1        0.0160
     24 C           3.5669   -4.9009   19.7189 C.3     1  UNL1        0.0014
     25 C           4.7032   -4.9143   18.7399 C.3     1  UNL1        0.0014
     26 C           3.5754    2.3336   21.7226 C.3     1  UNL1        0.0751
     27 N           2.4259    2.7741   22.5798 N.3     1  UNL1       -0.2726
     28 C           1.9409    4.1920   22.5131 C.3     1  UNL1        0.0721
     29 C           0.7914    4.6325   23.3702 C.3     1  UNL1        0.0174
     30 C           0.1271    3.6551   24.2941 C.3     1  UNL1        0.0031
     31 C           0.6122    2.2373   24.3608 C.3     1  UNL1        0.0204
     32 C           1.7616    1.7968   23.5036 C.3     1  UNL1        0.0724
     33 C          -0.0522    1.2600   25.2847 C.3     1  UNL1        0.0277
     34 C           0.2744    1.2708   26.7487 C.ar    1  UNL1       -0.0220
     35 C           1.6278    1.7224   27.2118 C.ar    1  UNL1       -0.0020
     36 C           1.9544    1.7332   28.6758 C.ar    1  UNL1        0.0293
     37 C           0.9277    1.2924   29.6766 C.ar    1  UNL1        0.1401
     38 F           1.2543    1.3032   31.1406 F       1  UNL1       -0.2042
     39 C          -0.4256    0.8408   29.2134 C.ar    1  UNL1        0.0293
     40 C          -0.7522    0.8300   27.7494 C.ar    1  UNL1       -0.0020
@<TRIPOS>BOND
     1    19    20    1
     2    20    21    2
     3    20    13    1
     4    13    14   ar
     5    14    15   ar
     6    15     7    1
     7     7     8   am
     8     8     9    2
     9     8    10   am
    10     1    10    1
    11     1     2    1
    12     2     3    1
    13     3     4    1
    14     4    22    1
    15    22    23    1
    16    23    24    1
    17    24    25    1
    18     4     5    1
    19     5     6    1
    20     6    26    1
    21    26    27    1
    22    27    28    1
    23    28    29    1
    24    29    30    1
    25    30    31    1
    26    31    33    1
    27    33    34    1
    28    34    35   ar
    29    35    36   ar
    30    36    37   ar
    31    37    38    1
    32    37    39   ar
    33    39    40   ar
    34    31    32    1
    35    15    16   ar
    36    16    17   ar
    37    17    18    1
    38    17    13   ar
    39     6     1    1
    40    32    27    1
    41    25    23    1
    42    40    34   ar
    43     7    11    1
    44    10    12    1
@<TRIPOS>MOLECULE
*****
 40 44 0 0 0
SMALL
GASTEIGER

@<TRIPOS>ATOM
      1 C           6.6388   -2.4187   28.6495 C.3     1  UNL1        0.0771
      2 C           6.5429   -3.8452   29.1032 C.3     1  UNL1        0.0370
      3 C           7.3772   -4.9008   28.4400 C.3     1  UNL1        0.0738
      4 N           8.3073   -4.5298   27.3233 N.3     1  UNL1       -0.2725
      5 C           8.4032   -3.1033   26.8696 C.3     1  UNL1        0.0751
      6 C           7.5690   -2.0478   27.5328 C.3     1  UNL1        0.0500
      7 N           3.5736   -0.0443   29.4960 N.am    1  UNL1       -0.2485
      8 C           4.4078   -1.0999   28.8330 C.2     1  UNL1        0.3058
      9 O           3.8455   -1.8923   27.6902 O.2     1  UNL1       -0.2524
     10 N           5.8045   -1.3631   29.3126 N.am    1  UNL1       -0.2901
     11 H           3.9426    0.4757   30.2461 H       1  UNL1        0.1583
     12 H           6.1736   -0.8430   30.0627 H       1  UNL1        0.1509
     13 C           0.2991    1.0393   27.7158 C.ar    1  UNL1        0.0803
     14 S           1.7951    1.0456   27.8244 S.2     1  UNL1       -0.0488
     15 C           2.1769    0.2189   29.0164 C.ar    1  UNL1        0.1664
     16 N           0.9168   -0.2984   29.6444 N.ar    1  UNL1       -0.2282
     17 C          -0.2438    0.2086   28.8406 C.ar    1  UNL1        0.0701
     18 C          -1.6928   -0.0667   29.1137 C.3     1  UNL1        0.0528
     19 C          -0.2014    1.5303   25.2141 C.3     1  UNL1        0.0779
     20 C          -0.5117    1.7405   26.6665 C.2     1  UNL1        0.1807
     21 O          -1.6327    2.6518   27.0697 O.2     1  UNL1       -0.2908
     22 C           9.1416   -5.5854   26.6601 C.3     1  UNL1        0.0720
     23 C           8.4792   -6.7234   25.9417 C.3     1  UNL1        0.0160
     24 C           7.5410   -7.8937   25.9483 C.3     1  UNL1        0.0014
     25 C           8.2701   -7.5241   24.6906 C.3     1  UNL1        0.0014
     26 C           7.6648   -0.6212   27.0791 C.3     1  UNL1        0.0751
     27 N           7.0454   -0.2047   25.7781 N.3     1  UNL1       -0.2726
     28 C           7.7063    0.8453   24.9348 C.3     1  UNL1        0.0721
     29 C           7.0868    1.2618   23.6338 C.3     1  UNL1        0.0174
     30 C           5.8064    0.6284   23.1759 C.3     1  UNL1        0.0031
     31 C           5.1456   -0.4215   24.0192 C.3     1  UNL1        0.0204
     32 C           5.7651   -0.8380   25.3202 C.3     1  UNL1        0.0724
     33 C           3.8652   -1.0549   23.5613 C.3     1  UNL1        0.0277
     34 C           3.8431   -1.8820   22.3101 C.ar    1  UNL1       -0.0220
     35 C           4.4457   -3.2557   22.3084 C.ar    1  UNL1       -0.0020
     36 C           4.4236   -4.0827   21.0572 C.ar    1  UNL1        0.0293
     37 C           3.7989   -3.5361   19.8077 C.ar    1  UNL1        0.1401
     38 F           3.7768   -4.3631   18.5565 F       1  UNL1       -0.2042
     39 C           3.1964   -2.1624   19.8095 C.ar    1  UNL1        0.0293
     40 C           3.2185   -1.3354   21.0607 C.ar    1  UNL1       -0.0020
@<TRIPOS>BOND
     1    19    20    1
     2    20    21    2
     3    20    13    1
     4    13    14   ar
     5    14    15   ar
     6    15     7    1
     7     7     8   am
     8     8     9    2
     9     8    10   am
    10     1    10    1
    11     1     2    1
    12     2     3    1
    13     3     4    1
    14     4    22    1
    15    22    23    1
    16    23    24    1
    17    24    25    1
    18     4     5    1
    19     5     6    1
    20     6    26    1
    21    26    27    1
    22    27    28    1
    23    28    29    1
    24    29    30    1
    25    30    31    1
    26    31    33    1
    27    33    34    1
    28    34    35   ar
    29    35    36   ar
    30    36    37   ar
    31    37    38    1
    32    37    39   ar
    33    39    40   ar
    34    31    32    1
    35    15    16   ar
    36    16    17   ar
    37    17    18    1
    38    17    13   ar
    39     6     1    1
    40    32    27    1
    41    25    23    1
    42    40    34   ar
    43     7    11    1
    44    10    12    1
@<TRIPOS>MOLECULE
*****
 40 44 0 0 0
SMALL
GASTEIGER

@<TRIPOS>ATOM
      1 C           2.8316    0.7434   21.8034 C.3     1  UNL1        0.0771
      2 C           4.2926    0.4269   21.9263 C.3     1  UNL1        0.0370
      3 C           4.9317   -0.5450   20.9791 C.3     1  UNL1        0.0738
      4 N           4.1096   -1.2003   19.9091 N.3     1  UNL1       -0.2725
      5 C           2.6486   -0.8838   19.7863 C.3     1  UNL1        0.0751
      6 C           2.0096    0.0881   20.7335 C.3     1  UNL1        0.0500
      7 N           1.1501    2.2403   25.0718 N.am    1  UNL1       -0.2485
      8 C           1.7892    1.2685   24.1246 C.2     1  UNL1        0.3058
      9 O           2.0250   -0.1501   24.5514 O.2     1  UNL1       -0.2524
     10 N           2.1925    1.7153   22.7506 N.am    1  UNL1       -0.2901
     11 H           0.9954    3.1714   24.7917 H       1  UNL1        0.1583
     12 H           2.0378    2.6463   22.4705 H       1  UNL1        0.1509
     13 C           0.7918    1.3258   28.8269 C.ar    1  UNL1        0.0803
     14 S           1.5867    1.8864   27.6850 S.2     1  UNL1       -0.0488
     15 C           0.7468    1.7936   26.4457 C.ar    1  UNL1        0.1664
     16 N          -0.5672    1.1756   26.8216 N.ar    1  UNL1       -0.2282
     17 C          -0.5395    0.8865   28.2933 C.ar    1  UNL1        0.0701
     18 C          -1.6483    0.2669   29.0911 C.3     1  UNL1        0.0528
     19 C           0.9610    2.3373   31.2140 C.3     1  UNL1        0.0779
     20 C           1.2480    1.2226   30.2521 C.2     1  UNL1        0.1807
     21 O           1.9912    0.0049   30.7154 O.2     1  UNL1       -0.2908
     22 C           4.7487   -2.1722   18.9619 C.3     1  UNL1        0.0720
     23 C           4.3590   -3.6202   18.9970 C.3     1  UNL1        0.0160
     24 C           3.3680   -4.6906   19.3463 C.3     1  UNL1        0.0014
     25 C           4.6749   -5.0578   18.7085 C.3     1  UNL1        0.0014
     26 C           0.5485    0.4046   20.6107 C.3     1  UNL1        0.0751
     27 N           0.1113    1.7071   20.0087 N.3     1  UNL1       -0.2726
     28 C           0.8950    2.3133   18.8824 C.3     1  UNL1        0.0721
     29 C           0.4578    3.6158   18.2804 C.3     1  UNL1        0.0174
     30 C          -0.7631    4.3121   18.8047 C.3     1  UNL1        0.0031
     31 C          -1.5467    3.7059   19.9309 C.3     1  UNL1        0.0204
     32 C          -1.1095    2.4034   20.5329 C.3     1  UNL1        0.0724
     33 C          -2.7675    4.4021   20.4552 C.3     1  UNL1        0.0277
     34 C          -3.2120    4.1736   21.8695 C.ar    1  UNL1       -0.0220
     35 C          -2.4696    4.8181   23.0024 C.ar    1  UNL1       -0.0020
     36 C          -2.9141    4.5895   24.4167 C.ar    1  UNL1        0.0293
     37 C          -4.1010    3.7164   24.6980 C.ar    1  UNL1        0.1401
     38 F          -4.5455    3.4878   26.1123 F       1  UNL1       -0.2042
     39 C          -4.8433    3.0719   23.5651 C.ar    1  UNL1        0.0293
     40 C          -4.3988    3.3005   22.1508 C.ar    1  UNL1       -0.0020
@<TRIPOS>BOND
     1    19    20    1
     2    20    21    2
     3    20    13    1
     4    13    14   ar
     5    14    15   ar
     6    15     7    1
     7     7     8   am
     8     8     9    2
     9     8    10   am
    10     1    10    1
    11     1     2    1
    12     2     3    1
    13     3     4    1
    14     4    22    1
    15    22    23    1
    16    23    24    1
    17    24    25    1
    18     4     5    1
    19     5     6    1
    20     6    26    1
    21    26    27    1
    22    27    28    1
    23    28    29    1
    24    29    30    1
    25    30    31    1
    26    31    33    1
    27    33    34    1
    28    34    35   ar
    29    35    36   ar
    30    36    37   ar
    31    37    38    1
    32    37    39   ar
    33    39    40   ar
    34    31    32    1
    35    15    16   ar
    36    16    17   ar
    37    17    18    1
    38    17    13   ar
    39     6     1    1
    40    32    27    1
    41    25    23    1
    42    40    34   ar
    43     7    11    1
    44    10    12    1
@<TRIPOS>MOLECULE
*****
 40 44 0 0 0
SMALL
GASTEIGER

@<TRIPOS>ATOM
      1 C           3.6276    2.4494   34.3662 C.3     1  UNL1        0.0771
      2 C           2.4295    3.2022   34.8640 C.3     1  UNL1        0.0370
      3 C           2.1929    3.3451   36.3382 C.3     1  UNL1        0.0738
      4 N           3.1545    2.7353   37.3147 N.3     1  UNL1       -0.2725
      5 C           4.3525    1.9825   36.8170 C.3     1  UNL1        0.0751
      6 C           4.5891    1.8396   35.3427 C.3     1  UNL1        0.0500
      7 N           2.9682    1.7860   30.5094 N.am    1  UNL1       -0.2485
      8 C           2.7316    1.9290   31.9836 C.2     1  UNL1        0.3058
      9 O           1.3624    1.6946   32.5498 O.2     1  UNL1       -0.2524
     10 N           3.8642    2.3064   32.8918 N.am    1  UNL1       -0.2901
     11 H           3.8668    1.9398   30.1378 H       1  UNL1        0.1583
     12 H           4.7628    2.4602   32.5203 H       1  UNL1        0.1509
     13 C           0.3246    1.3362   27.7032 C.ar    1  UNL1        0.0803
     14 S           1.5450    2.0092   28.2577 S.2     1  UNL1       -0.0488
     15 C           1.8356    1.4086   29.6011 C.ar    1  UNL1        0.1664
     16 N           0.7947    0.3643   29.8769 N.ar    1  UNL1       -0.2282
     17 C          -0.1391    0.3195   28.7039 C.ar    1  UNL1        0.0701
     18 C          -1.3280   -0.5834   28.5574 C.3     1  UNL1        0.0528
     19 C           0.3090    1.1274   25.1136 C.3     1  UNL1        0.0779
     20 C          -0.3191    1.6284   26.3802 C.2     1  UNL1        0.1807
     21 O          -1.5908    2.4218   26.3239 O.2     1  UNL1       -0.2908
     22 C           2.9178    2.8783   38.7891 C.3     1  UNL1        0.0720
     23 C           1.7328    2.2153   39.4263 C.3     1  UNL1        0.0160
     24 C           0.5286    2.2856   40.3178 C.3     1  UNL1        0.0014
     25 C           0.8845    0.9966   39.6385 C.3     1  UNL1        0.0014
     26 C           5.7873    1.0867   34.8449 C.3     1  UNL1        0.0751
     27 N           5.6102   -0.2341   34.1563 N.3     1  UNL1       -0.2726
     28 C           4.3634   -1.0368   34.3828 C.3     1  UNL1        0.0721
     29 C           4.1864   -2.3576   33.6943 C.3     1  UNL1        0.0174
     30 C           5.2561   -2.8757   32.7792 C.3     1  UNL1        0.0031
     31 C           6.5028   -2.0730   32.5527 C.3     1  UNL1        0.0204
     32 C           6.6799   -0.7522   33.2413 C.3     1  UNL1        0.0724
     33 C           7.5726   -2.5911   31.6376 C.3     1  UNL1        0.0277
     34 C           7.2058   -3.4614   30.4722 C.ar    1  UNL1       -0.0220
     35 C           7.4558   -4.9392   30.5318 C.ar    1  UNL1       -0.0020
     36 C           7.0891   -5.8095   29.3664 C.ar    1  UNL1        0.0293
     37 C           6.4723   -5.2019   28.1415 C.ar    1  UNL1        0.1401
     38 F           6.1056   -6.0722   26.9761 F       1  UNL1       -0.2042
     39 C           6.2224   -3.7241   28.0819 C.ar    1  UNL1        0.0293
     40 C           6.5891   -2.8539   29.2473 C.ar    1  UNL1       -0.0020
@<TRIPOS>BOND
     1    19    20    1
     2    20    21    2
     3    20    13    1
     4    13    14   ar
     5    14    15   ar
     6    15     7    1
     7     7     8   am
     8     8     9    2
     9     8    10   am
    10     1    10    1
    11     1     2    1
    12     2     3    1
    13     3     4    1
    14     4    22    1
    15    22    23    1
    16    23    24    1
    17    24    25    1
    18     4     5    1
    19     5     6    1
    20     6    26    1
    21    26    27    1
    22    27    28    1
    23    28    29    1
    24    29    30    1
    25    30    31    1
    26    31    33    1
    27    33    34    1
    28    34    35   ar
    29    35    36   ar
    30    36    37   ar
    31    37    38    1
    32    37    39   ar
    33    39    40   ar
    34    31    32    1
    35    15    16   ar
    36    16    17   ar
    37    17    18    1
    38    17    13   ar
    39     6     1    1
    40    32    27    1
    41    25    23    1
    42    40    34   ar
    43     7    11    1
    44    10    12    1
@<TRIPOS>MOLECULE
*****
 40 44 0 0 0
SMALL
GASTEIGER

@<TRIPOS>ATOM
      1 C           2.4878    0.8946   20.5522 C.3     1  UNL1        0.0771
      2 C           2.6959    0.9735   19.0688 C.3     1  UNL1        0.0370
      3 C           3.3925   -0.1429   18.3489 C.3     1  UNL1        0.0738
      4 N           3.8811   -1.3381   19.1123 N.3     1  UNL1       -0.2725
      5 C           3.6730   -1.4170   20.5956 C.3     1  UNL1        0.0751
      6 C           2.9763   -0.3006   21.3156 C.3     1  UNL1        0.0500
      7 N          -0.4018    3.2268   21.9527 N.am    1  UNL1       -0.2485
      8 C           0.2949    2.1105   21.2327 C.2     1  UNL1        0.3058
      9 O          -0.5046    1.0936   20.4731 O.2     1  UNL1       -0.2524
     10 N           1.7911    2.0110   21.2723 N.am    1  UNL1       -0.2901
     11 H           0.1229    3.8941   22.4512 H       1  UNL1        0.1583
     12 H           2.3158    2.6783   21.7708 H       1  UNL1        0.1509
     13 C          -4.2120    3.5984   22.5927 C.ar    1  UNL1        0.0803
     14 S          -2.7963    3.5773   23.0879 S.2     1  UNL1       -0.0488
     15 C          -1.8980    3.3263   21.9131 C.ar    1  UNL1        0.1664
     16 N          -2.7586    3.1923   20.6919 N.ar    1  UNL1       -0.2282
     17 C          -4.1887    3.3605   21.1118 C.ar    1  UNL1        0.0701
     18 C          -5.3854    3.3011   20.2094 C.3     1  UNL1        0.0528
     19 C          -5.3230    3.8644   24.9261 C.3     1  UNL1        0.0779
     20 C          -5.4362    3.8188   23.4311 C.2     1  UNL1        0.1807
     21 O          -6.7734    3.9936   22.7746 O.2     1  UNL1       -0.2908
     22 C           4.5778   -2.4545   18.3922 C.3     1  UNL1        0.0720
     23 C           4.3065   -3.8789   18.7759 C.3     1  UNL1        0.0160
     24 C           3.4555   -4.8960   19.4769 C.3     1  UNL1        0.0014
     25 C           4.6877   -5.3292   18.7394 C.3     1  UNL1        0.0014
     26 C           2.7682   -0.3795   22.7991 C.3     1  UNL1        0.0751
     27 N           3.4485    0.6035   23.7051 N.3     1  UNL1       -0.2726
     28 C           4.7839    1.1725   23.3268 C.3     1  UNL1        0.0721
     29 C           5.4642    2.1554   24.2328 C.3     1  UNL1        0.0174
     30 C           4.8092    2.5693   25.5173 C.3     1  UNL1        0.0031
     31 C           3.4739    2.0003   25.8956 C.3     1  UNL1        0.0204
     32 C           2.7935    1.0174   24.9895 C.3     1  UNL1        0.0724
     33 C           2.8188    2.4143   27.1800 C.3     1  UNL1        0.0277
     34 C           1.5789    1.7128   27.6496 C.ar    1  UNL1       -0.0220
     35 C           1.6894    0.5006   28.5263 C.ar    1  UNL1       -0.0020
     36 C           0.4495   -0.2009   28.9959 C.ar    1  UNL1        0.0293
     37 C          -0.9009    0.3098   28.5888 C.ar    1  UNL1        0.1401
     38 F          -2.1409   -0.3917   29.0584 F       1  UNL1       -0.2042
     39 C          -1.0114    1.5219   27.7121 C.ar    1  UNL1        0.0293
     40 C           0.2285    2.2234   27.2425 C.ar    1  UNL1       -0.0020
@<TRIPOS>BOND
     1    19    20    1
     2    20    21    2
     3    20    13    1
     4    13    14   ar
     5    14    15   ar
     6    15     7    1
     7     7     8   am
     8     8     9    2
     9     8    10   am
    10     1    10    1
    11     1     2    1
    12     2     3    1
    13     3     4    1
    14     4    22    1
    15    22    23    1
    16    23    24    1
    17    24    25    1
    18     4     5    1
    19     5     6    1
    20     6    26    1
    21    26    27    1
    22    27    28    1
    23    28    29    1
    24    29    30    1
    25    30    31    1
    26    31    33    1
    27    33    34    1
    28    34    35   ar
    29    35    36   ar
    30    36    37   ar
    31    37    38    1
    32    37    39   ar
    33    39    40   ar
    34    31    32    1
    35    15    16   ar
    36    16    17   ar
    37    17    18    1
    38    17    13   ar
    39     6     1    1
    40    32    27    1
    41    25    23    1
    42    40    34   ar
    43     7    11    1
    44    10    12    1
@<TRIPOS>MOLECULE
*****
 40 44 0 0 0
SMALL
GASTEIGER

@<TRIPOS>ATOM
      1 C           2.3966    1.4173   19.7491 C.3     1  UNL1        0.0771
      2 C           2.3864    0.4293   18.6205 C.3     1  UNL1        0.0370
      3 C           3.2598   -0.7886   18.6820 C.3     1  UNL1        0.0738
      4 N           4.1435   -1.0185   19.8721 N.3     1  UNL1       -0.2725
      5 C           4.1537   -0.0305   21.0006 C.3     1  UNL1        0.0751
      6 C           3.2803    1.1874   20.9391 C.3     1  UNL1        0.0500
      7 N          -0.7951    3.7604   20.0186 N.am    1  UNL1       -0.2485
      8 C           0.0783    2.5426   20.0800 C.2     1  UNL1        0.3058
      9 O          -0.4930    1.2319   20.5339 O.2     1  UNL1       -0.2524
     10 N           1.5231    2.6352   19.6876 N.am    1  UNL1       -0.2901
     11 H          -0.4201    4.6206   19.7207 H       1  UNL1        0.1583
     12 H           1.8981    3.4954   19.3898 H       1  UNL1        0.1509
     13 C          -4.6644    3.7385   20.3245 C.ar    1  UNL1        0.0803
     14 S          -3.4147    3.9586   19.5247 S.2     1  UNL1       -0.0488
     15 C          -2.2399    3.6678   20.4110 C.ar    1  UNL1        0.1664
     16 N          -2.7637    3.2680   21.7585 N.ar    1  UNL1       -0.2282
     17 C          -4.2621    3.3117   21.7051 C.ar    1  UNL1        0.0701
     18 C          -5.1945    2.9859   22.8340 C.3     1  UNL1        0.0528
     19 C          -6.9240    5.0198   20.3768 C.3     1  UNL1        0.0779
     20 C          -6.0698    3.9144   19.8305 C.2     1  UNL1        0.1807
     21 O          -6.6208    2.9850   18.7901 O.2     1  UNL1       -0.2908
     22 C           5.0170   -2.2364   19.9335 C.3     1  UNL1        0.0720
     23 C           4.5066   -3.5519   19.4246 C.3     1  UNL1        0.0160
     24 C           4.7566   -4.8727   18.7591 C.3     1  UNL1        0.0014
     25 C           3.3725   -4.5095   19.2086 C.3     1  UNL1        0.0014
     26 C           3.2905    2.1755   22.0678 C.3     1  UNL1        0.0751
     27 N           2.1765    2.1782   23.0723 N.3     1  UNL1       -0.2726
     28 C           1.6368    0.8807   23.5971 C.3     1  UNL1        0.0721
     29 C           0.5228    0.8834   24.6016 C.3     1  UNL1        0.0174
     30 C          -0.0514    2.1835   25.0814 C.3     1  UNL1        0.0031
     31 C           0.4884    3.4809   24.5565 C.3     1  UNL1        0.0204
     32 C           1.6024    3.4782   23.5520 C.3     1  UNL1        0.0724
     33 C          -0.0858    4.7810   25.0363 C.3     1  UNL1        0.0277
     34 C          -1.5619    4.9078   25.2710 C.ar    1  UNL1       -0.0220
     35 C          -2.4075    5.7000   24.3184 C.ar    1  UNL1       -0.0020
     36 C          -3.8836    5.8268   24.5532 C.ar    1  UNL1        0.0293
     37 C          -4.5140    5.1613   25.7405 C.ar    1  UNL1        0.1401
     38 F          -5.9901    5.2881   25.9753 F       1  UNL1       -0.2042
     39 C          -3.6684    4.3692   26.6931 C.ar    1  UNL1        0.0293
     40 C          -2.1923    4.2424   26.4583 C.ar    1  UNL1       -0.0020
@<TRIPOS>BOND
     1    19    20    1
     2    20    21    2
     3    20    13    1
     4    13    14   ar
     5    14    15   ar
     6    15     7    1
     7     7     8   am
     8     8     9    2
     9     8    10   am
    10     1    10    1
    11     1     2    1
    12     2     3    1
    13     3     4    1
    14     4    22    1
    15    22    23    1
    16    23    24    1
    17    24    25    1
    18     4     5    1
    19     5     6    1
    20     6    26    1
    21    26    27    1
    22    27    28    1
    23    28    29    1
    24    29    30    1
    25    30    31    1
    26    31    33    1
    27    33    34    1
    28    34    35   ar
    29    35    36   ar
    30    36    37   ar
    31    37    38    1
    32    37    39   ar
    33    39    40   ar
    34    31    32    1
    35    15    16   ar
    36    16    17   ar
    37    17    18    1
    38    17    13   ar
    39     6     1    1
    40    32    27    1
    41    25    23    1
    42    40    34   ar
    43     7    11    1
    44    10    12    1
@<TRIPOS>MOLECULE
*****
 40 44 0 0 0
SMALL
GASTEIGER

@<TRIPOS>ATOM
      1 C           3.4354    1.1043   18.4847 C.3     1  UNL1        0.0771
      2 C           3.2028   -0.0057   17.5031 C.3     1  UNL1        0.0370
      3 C           3.9427   -1.3024   17.6481 C.3     1  UNL1        0.0738
      4 N           4.9153   -1.4890   18.7748 N.3     1  UNL1       -0.2725
      5 C           5.1479   -0.3789   19.7564 C.3     1  UNL1        0.0751
      6 C           4.4079    0.9177   19.6114 C.3     1  UNL1        0.0500
      7 N           0.4848    3.7584   18.4840 N.am    1  UNL1       -0.2485
      8 C           1.2248    2.4618   18.6290 C.2     1  UNL1        0.3058
      9 O           0.4941    1.2257   19.0632 O.2     1  UNL1       -0.2524
     10 N           2.6954    2.4011   18.3398 N.am    1  UNL1       -0.2901
     11 H           0.9643    4.5697   18.1990 H       1  UNL1        0.1583
     12 H           3.1749    3.2123   18.0548 H       1  UNL1        0.1509
     13 C          -3.1058    3.8749   19.9536 C.ar    1  UNL1        0.0803
     14 S          -1.6188    3.7940   20.1329 S.2     1  UNL1       -0.0488
     15 C          -0.9858    3.8191   18.7732 C.ar    1  UNL1        0.1664
     16 N          -2.0817    3.9156   17.7536 N.ar    1  UNL1       -0.2282
     17 C          -3.3919    3.9501   18.4830 C.ar    1  UNL1        0.0701
     18 C          -4.7498    4.0434   17.8526 C.3     1  UNL1        0.0528
     19 C          -4.6711    5.1804   21.5646 C.3     1  UNL1        0.0779
     20 C          -4.1274    3.8798   21.0519 C.2     1  UNL1        0.1807
     21 O          -4.6052    2.5843   21.6376 O.2     1  UNL1       -0.2908
     22 C           5.6553   -2.7857   18.9198 C.3     1  UNL1        0.0720
     23 C           4.8953   -4.0718   19.0553 C.3     1  UNL1        0.0160
     24 C           3.7623   -4.8547   19.6496 C.3     1  UNL1        0.0014
     25 C           4.7121   -5.5165   18.6958 C.3     1  UNL1        0.0014
     26 C           4.6404    2.0279   20.5930 C.3     1  UNL1        0.0751
     27 N           3.4886    2.5996   21.3653 N.3     1  UNL1       -0.2726
     28 C           3.2513    4.0808   21.3715 C.3     1  UNL1        0.0721
     29 C           2.0995    4.6526   22.1438 C.3     1  UNL1        0.0174
     30 C           1.1850    3.7432   22.9099 C.3     1  UNL1        0.0031
     31 C           1.4224    2.2621   22.9037 C.3     1  UNL1        0.0204
     32 C           2.5742    1.6904   22.1314 C.3     1  UNL1        0.0724
     33 C           0.5079    1.3527   23.6697 C.3     1  UNL1        0.0277
     34 C           0.3776    1.4994   25.1569 C.ar    1  UNL1       -0.0220
     35 C          -0.8790    2.0674   25.7473 C.ar    1  UNL1       -0.0020
     36 C          -1.0093    2.2140   27.2344 C.ar    1  UNL1        0.0293
     37 C           0.1171    1.7928   28.1311 C.ar    1  UNL1        0.1401
     38 F          -0.0132    1.9394   29.6182 F       1  UNL1       -0.2042
     39 C           1.3735    1.2248   27.5407 C.ar    1  UNL1        0.0293
     40 C           1.5038    1.0782   26.0536 C.ar    1  UNL1       -0.0020
@<TRIPOS>BOND
     1    19    20    1
     2    20    21    2
     3    20    13    1
     4    13    14   ar
     5    14    15   ar
     6    15     7    1
     7     7     8   am
     8     8     9    2
     9     8    10   am
    10     1    10    1
    11     1     2    1
    12     2     3    1
    13     3     4    1
    14     4    22    1
    15    22    23    1
    16    23    24    1
    17    24    25    1
    18     4     5    1
    19     5     6    1
    20     6    26    1
    21    26    27    1
    22    27    28    1
    23    28    29    1
    24    29    30    1
    25    30    31    1
    26    31    33    1
    27    33    34    1
    28    34    35   ar
    29    35    36   ar
    30    36    37   ar
    31    37    38    1
    32    37    39   ar
    33    39    40   ar
    34    31    32    1
    35    15    16   ar
    36    16    17   ar
    37    17    18    1
    38    17    13   ar
    39     6     1    1
    40    32    27    1
    41    25    23    1
    42    40    34   ar
    43     7    11    1
    44    10    12    1
@<TRIPOS>MOLECULE
*****
 40 44 0 0 0
SMALL
GASTEIGER

@<TRIPOS>ATOM
      1 C           4.3450    2.5195   34.6436 C.3     1  UNL1        0.0771
      2 C           3.2292    3.1722   35.4045 C.3     1  UNL1        0.0370
      3 C           2.9319    2.7467   36.8118 C.3     1  UNL1        0.0738
      4 N           3.7503    1.6685   37.4582 N.3     1  UNL1       -0.2725
      5 C           4.8660    1.0159   36.6972 C.3     1  UNL1        0.0751
      6 C           5.1634    1.4414   35.2900 C.3     1  UNL1        0.0500
      7 N           4.2195    2.7251   30.6823 N.am    1  UNL1       -0.2485
      8 C           3.9221    2.2997   32.0896 C.2     1  UNL1        0.3058
      9 O           2.9045    1.2289   32.3503 O.2     1  UNL1       -0.2524
     10 N           4.6424    2.9450   33.2362 N.am    1  UNL1       -0.2901
     11 H           4.8874    3.4279   30.5112 H       1  UNL1        0.1583
     12 H           5.3103    3.6478   33.0652 H       1  UNL1        0.1509
     13 C           3.0480    0.8801   27.4746 C.ar    1  UNL1        0.0803
     14 S           4.1392    1.3660   28.3820 S.2     1  UNL1       -0.0488
     15 C           3.4992    2.0798   29.5356 C.ar    1  UNL1        0.1664
     16 N           2.0126    2.0351   29.3413 N.ar    1  UNL1       -0.2282
     17 C           1.7337    1.2936   28.0675 C.ar    1  UNL1        0.0701
     18 C           0.3784    1.0146   27.4883 C.3     1  UNL1        0.0528
     19 C           3.8063   -1.2727   26.2335 C.3     1  UNL1        0.0779
     20 C           3.2379    0.1150   26.1985 C.2     1  UNL1        0.1807
     21 O           2.8595    0.7376   24.8874 O.2     1  UNL1       -0.2908
     22 C           3.4528    1.2431   38.8655 C.3     1  UNL1        0.0720
     23 C           2.0498    0.8907   39.2619 C.3     1  UNL1        0.0160
     24 C           1.0231   -0.1402   39.6270 C.3     1  UNL1        0.0014
     25 C           0.6462    1.3110   39.5832 C.3     1  UNL1        0.0014
     26 C           6.2792    0.7887   34.5290 C.3     1  UNL1        0.0751
     27 N           6.0500   -0.5241   33.8405 N.3     1  UNL1       -0.2726
     28 C           4.7685   -1.2724   34.0599 C.3     1  UNL1        0.0721
     29 C           4.5393   -2.5852   33.3714 C.3     1  UNL1        0.0174
     30 C           5.5915   -3.1497   32.4635 C.3     1  UNL1        0.0031
     31 C           6.8729   -2.4015   32.2442 C.3     1  UNL1        0.0204
     32 C           7.1021   -1.0887   32.9327 C.3     1  UNL1        0.0724
     33 C           7.9251   -2.9661   31.3364 C.3     1  UNL1        0.0277
     34 C           7.5271   -3.7951   30.1513 C.ar    1  UNL1       -0.0220
     35 C           6.8518   -3.1499   28.9775 C.ar    1  UNL1       -0.0020
     36 C           6.4537   -3.9789   27.7924 C.ar    1  UNL1        0.0293
     37 C           6.7309   -5.4531   27.7812 C.ar    1  UNL1        0.1401
     38 F           6.3329   -6.2821   26.5962 F       1  UNL1       -0.2042
     39 C           7.4062   -6.0982   28.9550 C.ar    1  UNL1        0.0293
     40 C           7.8043   -5.2692   30.1401 C.ar    1  UNL1       -0.0020
@<TRIPOS>BOND
     1    19    20    1
     2    20    21    2
     3    20    13    1
     4    13    14   ar
     5    14    15   ar
     6    15     7    1
     7     7     8   am
     8     8     9    2
     9     8    10   am
    10     1    10    1
    11     1     2    1
    12     2     3    1
    13     3     4    1
    14     4    22    1
    15    22    23    1
    16    23    24    1
    17    24    25    1
    18     4     5    1
    19     5     6    1
    20     6    26    1
    21    26    27    1
    22    27    28    1
    23    28    29    1
    24    29    30    1
    25    30    31    1
    26    31    33    1
    27    33    34    1
    28    34    35   ar
    29    35    36   ar
    30    36    37   ar
    31    37    38    1
    32    37    39   ar
    33    39    40   ar
    34    31    32    1
    35    15    16   ar
    36    16    17   ar
    37    17    18    1
    38    17    13   ar
    39     6     1    1
    40    32    27    1
    41    25    23    1
    42    40    34   ar
    43     7    11    1
    44    10    12    1
@<TRIPOS>MOLECULE
*****
 40 44 0 0 0
SMALL
GASTEIGER

@<TRIPOS>ATOM
      1 C           0.0889    3.8591   18.7444 C.3     1  UNL1        0.0771
      2 C          -0.6610    3.6026   17.4709 C.3     1  UNL1        0.0370
      3 C          -2.0717    4.0897   17.3202 C.3     1  UNL1        0.0738
      4 N          -2.7324    4.8332   18.4430 N.3     1  UNL1       -0.2725
      5 C          -1.9825    5.0897   19.7164 C.3     1  UNL1        0.0751
      6 C          -0.5718    4.6026   19.8671 C.3     1  UNL1        0.0500
      7 N           3.1743    1.4641   19.4477 N.am    1  UNL1       -0.2485
      8 C           1.7636    1.9511   19.2969 C.2     1  UNL1        0.3058
      9 O           0.6168    1.0173   19.5479 O.2     1  UNL1       -0.2524
     10 N           1.4997    3.3720   18.8952 N.am    1  UNL1       -0.2901
     11 H           3.9269    2.0769   19.2830 H       1  UNL1        0.1583
     12 H           2.2523    3.9849   18.7304 H       1  UNL1        0.1509
     13 C           3.7570   -2.3610   19.7553 C.ar    1  UNL1        0.0803
     14 S           3.4519   -1.1442   18.9330 S.2     1  UNL1       -0.0488
     15 C           3.4382    0.0432   19.8495 C.ar    1  UNL1        0.1664
     16 N           3.7348   -0.4398   21.2382 N.ar    1  UNL1       -0.2282
     17 C           3.9318   -1.9257   21.1801 C.ar    1  UNL1        0.0701
     18 C           4.2481   -2.8193   22.3426 C.3     1  UNL1        0.0528
     19 C           5.2185   -4.3740   19.0058 C.3     1  UNL1        0.0779
     20 C           3.8677   -3.7664   19.2429 C.2     1  UNL1        0.1807
     21 O           2.6278   -4.5642   18.9676 O.2     1  UNL1       -0.2908
     22 C          -4.1431    5.3203   18.2922 C.3     1  UNL1        0.0720
     23 C          -5.2806    4.5002   18.8246 C.3     1  UNL1        0.0160
     24 C          -6.6228    4.4173   19.4892 C.3     1  UNL1        0.0014
     25 C          -5.9088    3.1626   19.0820 C.3     1  UNL1        0.0014
     26 C           0.1782    4.8591   21.1407 C.3     1  UNL1        0.0751
     27 N          -0.0372    3.9706   22.3298 N.3     1  UNL1       -0.2726
     28 C           0.9024    2.8317   22.5951 C.3     1  UNL1        0.0721
     29 C           0.6870    1.9432   23.7842 C.3     1  UNL1        0.0174
     30 C          -0.4679    2.1935   24.7082 C.3     1  UNL1        0.0031
     31 C          -1.4074    3.3324   24.4429 C.3     1  UNL1        0.0204
     32 C          -1.1920    4.2209   23.2538 C.3     1  UNL1        0.0724
     33 C          -2.5623    3.5828   25.3669 C.3     1  UNL1        0.0277
     34 C          -3.9316    3.8286   24.8062 C.ar    1  UNL1       -0.0220
     35 C          -4.9258    4.6396   25.5833 C.ar    1  UNL1       -0.0020
     36 C          -6.2952    4.8854   25.0226 C.ar    1  UNL1        0.0293
     37 C          -6.6704    4.3201   23.6848 C.ar    1  UNL1        0.1401
     38 F          -8.0398    4.5659   23.1241 F       1  UNL1       -0.2042
     39 C          -5.6763    3.5091   22.9077 C.ar    1  UNL1        0.0293
     40 C          -4.3069    3.2633   23.4684 C.ar    1  UNL1       -0.0020
@<TRIPOS>BOND
     1    19    20    1
     2    20    21    2
     3    20    13    1
     4    13    14   ar
     5    14    15   ar
     6    15     7    1
     7     7     8   am
     8     8     9    2
     9     8    10   am
    10     1    10    1
    11     1     2    1
    12     2     3    1
    13     3     4    1
    14     4    22    1
    15    22    23    1
    16    23    24    1
    17    24    25    1
    18     4     5    1
    19     5     6    1
    20     6    26    1
    21    26    27    1
    22    27    28    1
    23    28    29    1
    24    29    30    1
    25    30    31    1
    26    31    33    1
    27    33    34    1
    28    34    35   ar
    29    35    36   ar
    30    36    37   ar
    31    37    38    1
    32    37    39   ar
    33    39    40   ar
    34    31    32    1
    35    15    16   ar
    36    16    17   ar
    37    17    18    1
    38    17    13   ar
    39     6     1    1
    40    32    27    1
    41    25    23    1
    42    40    34   ar
    43     7    11    1
    44    10    12    1
