@<TRIPOS>MOLECULE
*****
 26 29 0 0 0
SMALL
GASTEIGER

@<TRIPOS>ATOM
      1 C          -4.4871  -17.6953   22.9781 C.ar    1  UNL1       -0.0022
      2 C          -5.2211  -18.7218   22.1672 C.ar    1  UNL1       -0.0011
      3 C          -6.7057  -18.6113   21.9838 C.ar    1  UNL1        0.0189
      4 C          -7.4564  -17.4743   22.6112 C.ar    1  UNL1        0.0825
      5 C          -6.7224  -16.4478   23.4221 C.ar    1  UNL1        0.0189
      6 C          -5.2378  -16.5583   23.6055 C.ar    1  UNL1       -0.0011
      7 N          -8.9411  -17.3638   22.4277 N.ar    1  UNL1       -0.2316
      8 N          -9.6406  -16.6322   21.3208 N.ar    1  UNL1       -0.1617
      9 C         -11.1187  -16.7818   21.5280 C.ar    1  UNL1        0.1698
     10 C         -11.3326  -17.6058   22.7630 C.ar    1  UNL1        0.0197
     11 C          -9.9867  -17.9655   23.3191 C.ar    1  UNL1        0.0878
     12 C          -9.8873  -18.7945   24.5652 C.3     1  UNL1        0.1872
     13 O         -11.1337  -19.2638   25.2552 O.3     1  UNL1       -0.3470
     14 C         -12.4796  -18.9040   24.6992 C.3     1  UNL1        0.1474
     15 C         -12.5790  -18.0750   23.4531 C.3     1  UNL1        0.0612
     16 C         -12.1941  -16.2080   20.6537 C.3     1  UNL1        0.4362
     17 F         -13.2694  -15.6343   19.7794 F       1  UNL1       -0.1644
     18 F         -11.5760  -16.8708   19.4585 F       1  UNL1       -0.1644
     19 F         -12.8121  -15.5452   21.8489 F       1  UNL1       -0.1644
     20 C          -3.0025  -17.8059   23.1615 C.3     1  UNL1        0.1201
     21 O          -1.9259  -20.3376   21.4062 O.2     1  UNL1       -0.2749
     22 C          -1.5973  -18.8941   21.1649 C.2     1  UNL1        0.2259
     23 C          -0.7162  -18.3608   20.0744 C.3     1  UNL1        0.0870
     24 C          -0.6665  -16.8675   20.2072 C.3     1  UNL1        0.0311
     25 C          -1.5168  -16.4779   21.3798 C.3     1  UNL1        0.0942
     26 N          -2.0922  -17.7304   21.9717 N.am    1  UNL1       -0.2754
@<TRIPOS>BOND
     1    21    22    2
     2    22    23    1
     3    23    24    1
     4    24    25    1
     5    25    26    1
     6    26    20    1
     7    20     1    1
     8     1     2   ar
     9     2     3   ar
    10     3     4   ar
    11     4     7    1
    12     7     8   ar
    13     8     9   ar
    14     9    16    1
    15    16    17    1
    16    16    18    1
    17    16    19    1
    18     9    10   ar
    19    10    11   ar
    20    11    12    1
    21    12    13    1
    22    13    14    1
    23    14    15    1
    24     4     5   ar
    25     5     6   ar
    26    26    22   am
    27     6     1   ar
    28    11     7   ar
    29    15    10    1
@<TRIPOS>MOLECULE
*****
 26 29 0 0 0
SMALL
GASTEIGER

@<TRIPOS>ATOM
      1 C          -4.7264  -17.6688   23.1019 C.ar    1  UNL1       -0.0022
      2 C          -5.4722  -16.5401   23.7499 C.ar    1  UNL1       -0.0011
      3 C          -6.9695  -16.4892   23.6741 C.ar    1  UNL1        0.0189
      4 C          -7.7209  -17.5668   22.9503 C.ar    1  UNL1        0.0825
      5 C          -6.9751  -18.6955   22.3023 C.ar    1  UNL1        0.0189
      6 C          -5.4779  -18.7465   22.3781 C.ar    1  UNL1       -0.0011
      7 N          -9.2181  -17.5159   22.8745 N.ar    1  UNL1       -0.2316
      8 N         -10.1717  -18.0529   23.9004 N.ar    1  UNL1       -0.1617
      9 C         -11.5675  -17.7878   23.4194 C.ar    1  UNL1        0.1698
     10 C         -11.4767  -17.0870   22.0963 C.ar    1  UNL1        0.0197
     11 C         -10.0247  -16.9189   21.7595 C.ar    1  UNL1        0.0878
     12 C          -9.6245  -16.2441   20.4811 C.3     1  UNL1        0.1872
     13 O         -10.6763  -15.7373   19.5395 O.3     1  UNL1       -0.3470
     14 C         -12.1283  -15.9054   19.8762 C.3     1  UNL1        0.1474
     15 C         -12.5285  -16.5802   21.1546 C.3     1  UNL1        0.0612
     16 C         -12.8322  -18.1585   24.1357 C.3     1  UNL1        0.4362
     17 F         -14.0970  -18.5292   24.8521 F       1  UNL1       -0.1644
     18 F         -13.5480  -17.0286   23.4568 F       1  UNL1       -0.1644
     19 F         -12.1165  -19.2884   24.8147 F       1  UNL1       -0.1644
     20 C          -3.2292  -17.7197   23.1777 C.3     1  UNL1        0.1201
     21 O          -2.1363  -20.3347   21.5600 O.2     1  UNL1       -0.2749
     22 C          -1.9111  -18.9025   21.1754 C.2     1  UNL1        0.2259
     23 C          -1.1441  -18.4208   19.9798 C.3     1  UNL1        0.0870
     24 C          -1.1725  -16.9209   19.9844 C.3     1  UNL1        0.0311
     25 C          -1.9569  -16.4758   21.1828 C.3     1  UNL1        0.0942
     26 N          -2.4135  -17.7005   21.9190 N.am    1  UNL1       -0.2754
@<TRIPOS>BOND
     1    21    22    2
     2    22    23    1
     3    23    24    1
     4    24    25    1
     5    25    26    1
     6    26    20    1
     7    20     1    1
     8     1     2   ar
     9     2     3   ar
    10     3     4   ar
    11     4     7    1
    12     7     8   ar
    13     8     9   ar
    14     9    16    1
    15    16    17    1
    16    16    18    1
    17    16    19    1
    18     9    10   ar
    19    10    11   ar
    20    11    12    1
    21    12    13    1
    22    13    14    1
    23    14    15    1
    24     4     5   ar
    25     5     6   ar
    26    26    22   am
    27     6     1   ar
    28    11     7   ar
    29    15    10    1
@<TRIPOS>MOLECULE
*****
 26 29 0 0 0
SMALL
GASTEIGER

@<TRIPOS>ATOM
      1 C          -4.8811  -19.5406   21.0615 C.ar    1  UNL1       -0.0022
      2 C          -5.2669  -18.7066   22.2471 C.ar    1  UNL1       -0.0011
      3 C          -6.6845  -18.2440   22.4092 C.ar    1  UNL1        0.0189
      4 C          -7.7164  -18.6153   21.3859 C.ar    1  UNL1        0.0825
      5 C          -7.3305  -19.4493   20.2003 C.ar    1  UNL1        0.0189
      6 C          -5.9129  -19.9119   20.0381 C.ar    1  UNL1       -0.0011
      7 N          -9.1340  -18.1527   21.5481 N.ar    1  UNL1       -0.2316
      8 N          -9.8786  -17.2475   20.6120 N.ar    1  UNL1       -0.1617
      9 C         -11.2607  -17.0495   21.1603 C.ar    1  UNL1        0.1698
     10 C         -11.3703  -17.8323   22.4351 C.ar    1  UNL1        0.0197
     11 C         -10.0559  -18.5141   22.6748 C.ar    1  UNL1        0.0878
     12 C          -9.8683  -19.3760   23.8880 C.3     1  UNL1        0.1872
     13 O         -10.9952  -19.5560   24.8615 O.3     1  UNL1       -0.3470
     14 C         -12.3096  -18.8741   24.6219 C.3     1  UNL1        0.1474
     15 C         -12.4971  -18.0123   23.4086 C.3     1  UNL1        0.0612
     16 C         -12.3432  -16.2151   20.5422 C.3     1  UNL1        0.4362
     17 F         -13.4258  -15.3807   19.9241 F       1  UNL1       -0.1644
     18 F         -12.7316  -15.7124   21.9010 F       1  UNL1       -0.1644
     19 F         -11.9548  -16.7177   19.1834 F       1  UNL1       -0.1644
     20 C          -3.4634  -20.0032   20.8993 C.3     1  UNL1        0.1201
     21 O          -1.0162  -18.5892   22.5308 O.2     1  UNL1       -0.2749
     22 C          -1.3098  -18.4288   21.0687 C.2     1  UNL1        0.2259
     23 C          -0.5301  -17.5903   20.0997 C.3     1  UNL1        0.0870
     24 C          -1.1732  -17.7220   18.7508 C.3     1  UNL1        0.0311
     25 C          -2.3501  -18.6418   18.8862 C.3     1  UNL1        0.0942
     26 N          -2.4347  -19.0787   20.3188 N.am    1  UNL1       -0.2754
@<TRIPOS>BOND
     1    21    22    2
     2    22    23    1
     3    23    24    1
     4    24    25    1
     5    25    26    1
     6    26    20    1
     7    20     1    1
     8     1     2   ar
     9     2     3   ar
    10     3     4   ar
    11     4     7    1
    12     7     8   ar
    13     8     9   ar
    14     9    16    1
    15    16    17    1
    16    16    18    1
    17    16    19    1
    18     9    10   ar
    19    10    11   ar
    20    11    12    1
    21    12    13    1
    22    13    14    1
    23    14    15    1
    24     4     5   ar
    25     5     6   ar
    26    26    22   am
    27     6     1   ar
    28    11     7   ar
    29    15    10    1
@<TRIPOS>MOLECULE
*****
 26 29 0 0 0
SMALL
GASTEIGER

@<TRIPOS>ATOM
      1 C          -5.7833  -19.9540   20.4376 C.ar    1  UNL1       -0.0022
      2 C          -5.9279  -19.3188   21.7888 C.ar    1  UNL1       -0.0011
      3 C          -7.2780  -18.8746   22.2681 C.ar    1  UNL1        0.0189
      4 C          -8.4836  -19.0656   21.3964 C.ar    1  UNL1        0.0825
      5 C          -8.3391  -19.7009   20.0452 C.ar    1  UNL1        0.0189
      6 C          -6.9889  -20.1451   19.5658 C.ar    1  UNL1       -0.0011
      7 N          -9.8338  -18.6214   21.8757 N.ar    1  UNL1       -0.2316
      8 N         -10.4945  -19.0352   23.1572 N.ar    1  UNL1       -0.1617
      9 C         -11.8293  -18.3549   23.2312 C.ar    1  UNL1        0.1698
     10 C         -11.9936  -17.5207   21.9954 C.ar    1  UNL1        0.0197
     11 C         -10.7603  -17.6854   21.1576 C.ar    1  UNL1        0.0878
     12 C         -10.6402  -16.9619   19.8492 C.3     1  UNL1        0.1872
     13 O         -11.7535  -16.0737   19.3785 O.3     1  UNL1       -0.3470
     14 C         -12.9868  -15.9090   20.2163 C.3     1  UNL1        0.1474
     15 C         -13.1069  -16.6325   21.5247 C.3     1  UNL1        0.0612
     16 C         -12.8251  -18.4858   24.3453 C.3     1  UNL1        0.4362
     17 F         -13.8208  -18.6167   25.4596 F       1  UNL1       -0.1644
     18 F         -11.7190  -18.8489   25.2912 F       1  UNL1       -0.1644
     19 F         -13.9311  -18.1227   23.3995 F       1  UNL1       -0.1644
     20 C          -4.4331  -20.3982   19.9583 C.3     1  UNL1        0.1201
     21 O          -1.7533  -20.3550   21.8201 O.2     1  UNL1       -0.2749
     22 C          -2.0770  -19.3900   20.7183 C.2     1  UNL1        0.2259
     23 C          -1.2259  -18.2358   20.2788 C.3     1  UNL1        0.0870
     24 C          -1.9316  -17.5422   19.1514 C.3     1  UNL1        0.0311
     25 C          -3.2189  -18.2679   18.8941 C.3     1  UNL1        0.0942
     26 N          -3.3089  -19.4100   19.8626 N.am    1  UNL1       -0.2754
@<TRIPOS>BOND
     1    21    22    2
     2    22    23    1
     3    23    24    1
     4    24    25    1
     5    25    26    1
     6    26    20    1
     7    20     1    1
     8     1     2   ar
     9     2     3   ar
    10     3     4   ar
    11     4     7    1
    12     7     8   ar
    13     8     9   ar
    14     9    16    1
    15    16    17    1
    16    16    18    1
    17    16    19    1
    18     9    10   ar
    19    10    11   ar
    20    11    12    1
    21    12    13    1
    22    13    14    1
    23    14    15    1
    24     4     5   ar
    25     5     6   ar
    26    26    22   am
    27     6     1   ar
    28    11     7   ar
    29    15    10    1
@<TRIPOS>MOLECULE
*****
 26 29 0 0 0
SMALL
GASTEIGER

@<TRIPOS>ATOM
      1 C          -9.6016  -19.4766   21.0885 C.ar    1  UNL1       -0.0022
      2 C          -8.7757  -19.0074   22.2494 C.ar    1  UNL1       -0.0011
      3 C          -7.3179  -18.7086   22.0606 C.ar    1  UNL1        0.0189
      4 C          -6.6861  -18.8790   20.7110 C.ar    1  UNL1        0.0825
      5 C          -7.5120  -19.3482   19.5500 C.ar    1  UNL1        0.0189
      6 C          -8.9698  -19.6470   19.7388 C.ar    1  UNL1       -0.0011
      7 N          -5.2283  -18.5802   20.5222 N.ar    1  UNL1       -0.2316
      8 N          -4.5206  -18.4375   19.2073 N.ar    1  UNL1       -0.1617
      9 C          -3.0773  -18.1408   19.4876 C.ar    1  UNL1        0.1698
     10 C          -2.8928  -18.1001   20.9757 C.ar    1  UNL1        0.0197
     11 C          -4.2223  -18.3717   21.6151 C.ar    1  UNL1        0.0878
     12 C          -4.3450  -18.3941   23.1099 C.3     1  UNL1        0.1872
     13 O          -3.1383  -18.1449   23.9652 O.3     1  UNL1       -0.3470
     14 C          -1.8089  -17.8733   23.3258 C.3     1  UNL1        0.1474
     15 C          -1.6861  -17.8509   21.8311 C.3     1  UNL1        0.0612
     16 C          -2.0063  -17.9229   18.4602 C.3     1  UNL1        0.4362
     17 F          -0.9353  -17.7050   17.4328 F       1  UNL1       -0.1644
     18 F          -2.8800  -16.9240   17.7612 F       1  UNL1       -0.1644
     19 F          -1.1325  -18.9218   19.1592 F       1  UNL1       -0.1644
     20 C         -11.0594  -19.7754   21.2774 C.3     1  UNL1        0.1201
     21 O         -12.7252  -17.0747   20.5148 O.2     1  UNL1       -0.2749
     22 C         -12.6438  -17.7064   21.8728 C.2     1  UNL1        0.2259
     23 C         -13.3138  -17.2078   23.1187 C.3     1  UNL1        0.0870
     24 C         -12.9622  -18.1410   24.2393 C.3     1  UNL1        0.0311
     25 C         -12.0750  -19.2163   23.6860 C.3     1  UNL1        0.0942
     26 N         -11.8781  -18.9478   22.2233 N.am    1  UNL1       -0.2754
@<TRIPOS>BOND
     1    21    22    2
     2    22    23    1
     3    23    24    1
     4    24    25    1
     5    25    26    1
     6    26    20    1
     7    20     1    1
     8     1     2   ar
     9     2     3   ar
    10     3     4   ar
    11     4     7    1
    12     7     8   ar
    13     8     9   ar
    14     9    16    1
    15    16    17    1
    16    16    18    1
    17    16    19    1
    18     9    10   ar
    19    10    11   ar
    20    11    12    1
    21    12    13    1
    22    13    14    1
    23    14    15    1
    24     4     5   ar
    25     5     6   ar
    26    26    22   am
    27     6     1   ar
    28    11     7   ar
    29    15    10    1
@<TRIPOS>MOLECULE
*****
 26 29 0 0 0
SMALL
GASTEIGER

@<TRIPOS>ATOM
      1 C           0.0091    2.7501   19.7126 C.ar    1  UNL1       -0.0022
      2 C           1.0338    2.3978   18.6754 C.ar    1  UNL1       -0.0011
      3 C           1.8711    1.1637   18.8371 C.ar    1  UNL1        0.0189
      4 C           1.6836    0.2819   20.0358 C.ar    1  UNL1        0.0825
      5 C           0.6588    0.6342   21.0731 C.ar    1  UNL1        0.0189
      6 C          -0.1784    1.8682   20.9115 C.ar    1  UNL1       -0.0011
      7 N           2.5209   -0.9522   20.1975 N.ar    1  UNL1       -0.2316
      8 N           2.8157   -1.9637   19.1298 N.ar    1  UNL1       -0.1617
      9 C           3.6873   -3.0280   19.7277 C.ar    1  UNL1        0.1698
     10 C           3.9312   -2.6743   21.1649 C.ar    1  UNL1        0.0197
     11 C           3.2103   -1.3913   21.4552 C.ar    1  UNL1        0.0878
     12 C           3.2747   -0.7888   22.8273 C.3     1  UNL1        0.1872
     13 O           4.0600   -1.4692   23.9091 O.3     1  UNL1       -0.3470
     14 C           4.7809   -2.7521   23.6187 C.3     1  UNL1        0.1474
     15 C           4.7165   -3.3547   22.2466 C.3     1  UNL1        0.0612
     16 C           4.2213   -4.2343   19.0138 C.3     1  UNL1        0.4362
     17 F           4.7554   -5.4406   18.2998 F       1  UNL1       -0.1644
     18 F           5.5488   -3.5538   18.8569 F       1  UNL1       -0.1644
     19 F           2.8939   -4.9148   19.1706 F       1  UNL1       -0.1644
     20 C          -0.8281    3.9841   19.5510 C.3     1  UNL1        0.1201
     21 O          -3.3621    3.1022   21.4087 O.2     1  UNL1       -0.2749
     22 C          -3.4189    3.4638   19.9541 C.2     1  UNL1        0.2259
     23 C          -4.6504    3.4834   19.0979 C.3     1  UNL1        0.0870
     24 C          -4.2468    3.9010   17.7148 C.3     1  UNL1        0.0311
     25 C          -2.7659    4.1393   17.7162 C.3     1  UNL1        0.0942
     26 N          -2.2541    3.8691   19.1002 N.am    1  UNL1       -0.2754
@<TRIPOS>BOND
     1    21    22    2
     2    22    23    1
     3    23    24    1
     4    24    25    1
     5    25    26    1
     6    26    20    1
     7    20     1    1
     8     1     2   ar
     9     2     3   ar
    10     3     4   ar
    11     4     7    1
    12     7     8   ar
    13     8     9   ar
    14     9    16    1
    15    16    17    1
    16    16    18    1
    17    16    19    1
    18     9    10   ar
    19    10    11   ar
    20    11    12    1
    21    12    13    1
    22    13    14    1
    23    14    15    1
    24     4     5   ar
    25     5     6   ar
    26    26    22   am
    27     6     1   ar
    28    11     7   ar
    29    15    10    1
@<TRIPOS>MOLECULE
*****
 26 29 0 0 0
SMALL
GASTEIGER

@<TRIPOS>ATOM
      1 C           2.5384    0.6238   25.3348 C.ar    1  UNL1       -0.0022
      2 C           1.7704    0.9312   24.0836 C.ar    1  UNL1       -0.0011
      3 C           2.1115    0.2292   22.8026 C.ar    1  UNL1        0.0189
      4 C           3.2206   -0.7802   22.7729 C.ar    1  UNL1        0.0825
      5 C           3.9886   -1.0877   24.0242 C.ar    1  UNL1        0.0189
      6 C           3.6475   -0.3856   25.3052 C.ar    1  UNL1       -0.0011
      7 N           3.5617   -1.4823   21.4920 N.ar    1  UNL1       -0.2316
      8 N           3.8071   -2.9533   21.3310 N.ar    1  UNL1       -0.1617
      9 C           4.1144   -3.2166   19.8867 C.ar    1  UNL1        0.1698
     10 C           4.0589   -1.9084   19.1549 C.ar    1  UNL1        0.0197
     11 C           3.7173   -0.8365   20.1470 C.ar    1  UNL1        0.0878
     12 C           3.5920    0.5891   19.6976 C.3     1  UNL1        0.1872
     13 O           3.8084    0.9428   18.2561 O.3     1  UNL1       -0.3470
     14 C           4.1500   -0.1291   17.2640 C.3     1  UNL1        0.1474
     15 C           4.2752   -1.5547   17.7134 C.3     1  UNL1        0.0612
     16 C           4.4230   -4.5535   19.2804 C.3     1  UNL1        0.4362
     17 F           4.7316   -5.8904   18.6742 F       1  UNL1       -0.1644
     18 F           2.9898   -4.6940   18.8607 F       1  UNL1       -0.1644
     19 F           5.8562   -4.4130   19.7001 F       1  UNL1       -0.1644
     20 C           2.1972    1.3258   26.6158 C.3     1  UNL1        0.1201
     21 O           2.2156   -0.9649   28.9400 O.2     1  UNL1       -0.2749
     22 C           1.0231   -0.1732   28.4918 C.2     1  UNL1        0.2259
     23 C          -0.3704   -0.2954   29.0333 C.3     1  UNL1        0.0870
     24 C          -1.2402    0.6820   28.2995 C.3     1  UNL1        0.0311
     25 C          -0.3842    1.4083   27.3047 C.3     1  UNL1        0.0942
     26 N           1.0147    0.8797   27.4235 N.am    1  UNL1       -0.2754
@<TRIPOS>BOND
     1    21    22    2
     2    22    23    1
     3    23    24    1
     4    24    25    1
     5    25    26    1
     6    26    20    1
     7    20     1    1
     8     1     2   ar
     9     2     3   ar
    10     3     4   ar
    11     4     7    1
    12     7     8   ar
    13     8     9   ar
    14     9    16    1
    15    16    17    1
    16    16    18    1
    17    16    19    1
    18     9    10   ar
    19    10    11   ar
    20    11    12    1
    21    12    13    1
    22    13    14    1
    23    14    15    1
    24     4     5   ar
    25     5     6   ar
    26    26    22   am
    27     6     1   ar
    28    11     7   ar
    29    15    10    1
@<TRIPOS>MOLECULE
*****
 26 29 0 0 0
SMALL
GASTEIGER

@<TRIPOS>ATOM
      1 C          -9.6478  -19.2580   20.8357 C.ar    1  UNL1       -0.0022
      2 C          -8.8747  -19.8773   19.7094 C.ar    1  UNL1       -0.0011
      3 C          -7.4009  -19.6272   19.5847 C.ar    1  UNL1        0.0189
      4 C          -6.7003  -18.7579   20.5863 C.ar    1  UNL1        0.0825
      5 C          -7.4735  -18.1386   21.7127 C.ar    1  UNL1        0.0189
      6 C          -8.9472  -18.3887   21.8374 C.ar    1  UNL1       -0.0011
      7 N          -5.2266  -18.5078   20.4616 N.ar    1  UNL1       -0.2316
      8 N          -4.4579  -18.3885   19.1790 N.ar    1  UNL1       -0.1617
      9 C          -3.0191  -18.1401   19.5224 C.ar    1  UNL1        0.1698
     10 C          -2.8984  -18.1058   21.0172 C.ar    1  UNL1        0.0197
     11 C          -4.2628  -18.3331   21.5976 C.ar    1  UNL1        0.0878
     12 C          -4.4512  -18.3516   23.0856 C.3     1  UNL1        0.1872
     13 O          -3.2753  -18.1428   23.9931 O.3     1  UNL1       -0.3470
     14 C          -1.9110  -17.9155   23.4126 C.3     1  UNL1        0.1474
     15 C          -1.7225  -17.8971   21.9247 C.3     1  UNL1        0.0612
     16 C          -1.8977  -17.9579   18.5430 C.3     1  UNL1        0.4362
     17 F          -0.7763  -17.7757   17.5635 F       1  UNL1       -0.1644
     18 F          -2.7153  -16.9472   17.7948 F       1  UNL1       -0.1644
     19 F          -1.0800  -18.9686   19.2911 F       1  UNL1       -0.1644
     20 C         -11.1216  -19.5081   20.9604 C.3     1  UNL1        0.1201
     21 O         -10.7231  -20.2498   24.1133 O.2     1  UNL1       -0.2749
     22 C         -11.7044  -19.2609   23.5575 C.2     1  UNL1        0.2259
     23 C         -12.6748  -18.4393   24.3532 C.3     1  UNL1        0.0870
     24 C         -13.4578  -17.5906   23.3957 C.3     1  UNL1        0.0311
     25 C         -12.9713  -17.8876   22.0083 C.3     1  UNL1        0.0942
     26 N         -11.8875  -18.9200   22.1082 N.am    1  UNL1       -0.2754
@<TRIPOS>BOND
     1    21    22    2
     2    22    23    1
     3    23    24    1
     4    24    25    1
     5    25    26    1
     6    26    20    1
     7    20     1    1
     8     1     2   ar
     9     2     3   ar
    10     3     4   ar
    11     4     7    1
    12     7     8   ar
    13     8     9   ar
    14     9    16    1
    15    16    17    1
    16    16    18    1
    17    16    19    1
    18     9    10   ar
    19    10    11   ar
    20    11    12    1
    21    12    13    1
    22    13    14    1
    23    14    15    1
    24     4     5   ar
    25     5     6   ar
    26    26    22   am
    27     6     1   ar
    28    11     7   ar
    29    15    10    1
