@<TRIPOS>MOLECULE
*****
 22 25 0 0 0
SMALL
GASTEIGER

@<TRIPOS>ATOM
      1 C          -5.0466  -14.7954   25.8806 C.3     1  UNL1        0.0899
      2 N          -5.4756  -15.7835   24.8367 N.3     1  UNL1       -0.2671
      3 C          -4.4598  -16.6734   24.1839 C.3     1  UNL1        0.0990
      4 C          -4.8888  -17.6615   23.1399 C.ar    1  UNL1       -0.0067
      5 C          -3.8731  -18.5515   22.4872 C.ar    1  UNL1        0.0334
      6 C          -4.3021  -19.5395   21.4433 C.ar    1  UNL1        0.1334
      7 O          -3.2863  -20.4295   20.7904 O.3     1  UNL1       -0.5055
      8 C          -5.7469  -19.6376   21.0522 C.ar    1  UNL1        0.0363
      9 C          -6.7626  -18.7476   21.7050 C.ar    1  UNL1       -0.0011
     10 C          -6.3336  -17.7596   22.7489 C.ar    1  UNL1       -0.0195
     11 C          -7.3494  -16.8696   23.4017 C.3     1  UNL1        0.0602
     12 C          -6.9204  -15.8816   24.4456 C.3     1  UNL1        0.0811
     13 H          -2.3838  -20.3682   21.0347 H       1  UNL1        0.2922
     14 C          -8.7942  -16.9677   23.0106 C.ar    1  UNL1       -0.0170
     15 C          -9.2646  -16.3641   21.7205 C.ar    1  UNL1       -0.0034
     16 C         -10.7094  -16.4621   21.3294 C.ar    1  UNL1        0.0062
     17 C         -11.6838  -17.1638   22.2285 C.ar    1  UNL1        0.0295
     18 S         -13.1575  -17.4164   22.1086 S.2     1  UNL1       -0.0864
     19 C         -13.5979  -18.1762   23.3247 C.ar    1  UNL1        0.0354
     20 C         -12.3964  -18.3931   24.1961 C.ar    1  UNL1        0.0075
     21 C         -11.2134  -17.7674   23.5185 C.ar    1  UNL1        0.0062
     22 C          -9.7686  -17.6694   23.9096 C.ar    1  UNL1       -0.0034
@<TRIPOS>BOND
     1     1     2    1
     2     2     3    1
     3     3     4    1
     4     4     5   ar
     5     5     6   ar
     6     6     7    1
     7     6     8   ar
     8     8     9   ar
     9     9    10   ar
    10    10    11    1
    11    11    14    1
    12    14    15   ar
    13    15    16   ar
    14    16    17   ar
    15    17    18   ar
    16    18    19   ar
    17    19    20   ar
    18    20    21   ar
    19    21    22   ar
    20    11    12    1
    21    12     2    1
    22    10     4   ar
    23    22    14   ar
    24    21    17   ar
    25     7    13    1
@<TRIPOS>MOLECULE
*****
 22 25 0 0 0
SMALL
GASTEIGER

@<TRIPOS>ATOM
      1 C          -4.2985  -19.9873   20.9553 C.3     1  UNL1        0.0899
      2 N          -5.1504  -19.0236   21.7271 N.3     1  UNL1       -0.2671
      3 C          -4.5126  -18.0507   22.6739 C.3     1  UNL1        0.0990
      4 C          -5.3645  -17.0870   23.4458 C.ar    1  UNL1       -0.0067
      5 C          -4.7266  -16.1140   24.3925 C.ar    1  UNL1        0.0334
      6 C          -5.5785  -15.1504   25.1643 C.ar    1  UNL1        0.1334
      7 O          -4.9407  -14.1774   26.1112 O.3     1  UNL1       -0.5055
      8 C          -7.0683  -15.1598   24.9894 C.ar    1  UNL1        0.0363
      9 C          -7.7061  -16.1328   24.0426 C.ar    1  UNL1       -0.0011
     10 C          -6.8542  -17.0964   23.2708 C.ar    1  UNL1       -0.0195
     11 C          -7.4921  -18.0694   22.3240 C.3     1  UNL1        0.0602
     12 C          -6.6402  -19.0330   21.5522 C.3     1  UNL1        0.0811
     13 H          -4.0101  -14.1715   26.2205 H       1  UNL1        0.2922
     14 C          -8.9818  -18.0788   22.1490 C.ar    1  UNL1       -0.0170
     15 C          -9.5754  -18.0461   20.7718 C.ar    1  UNL1       -0.0034
     16 C         -11.0652  -18.0554   20.5969 C.ar    1  UNL1        0.0062
     17 C         -11.9613  -18.0976   21.7991 C.ar    1  UNL1        0.0295
     18 S         -13.4547  -18.1158   21.9375 S.2     1  UNL1       -0.0864
     19 C         -13.7841  -18.1598   23.4003 C.ar    1  UNL1        0.0354
     20 C         -12.4942  -18.1688   24.1658 C.ar    1  UNL1        0.0075
     21 C         -11.3676  -18.1304   23.1762 C.ar    1  UNL1        0.0062
     22 C          -9.8779  -18.1210   23.3512 C.ar    1  UNL1       -0.0034
@<TRIPOS>BOND
     1     1     2    1
     2     2     3    1
     3     3     4    1
     4     4     5   ar
     5     5     6   ar
     6     6     7    1
     7     6     8   ar
     8     8     9   ar
     9     9    10   ar
    10    10    11    1
    11    11    14    1
    12    14    15   ar
    13    15    16   ar
    14    16    17   ar
    15    17    18   ar
    16    18    19   ar
    17    19    20   ar
    18    20    21   ar
    19    21    22   ar
    20    11    12    1
    21    12     2    1
    22    10     4   ar
    23    22    14   ar
    24    21    17   ar
    25     7    13    1
@<TRIPOS>MOLECULE
*****
 22 25 0 0 0
SMALL
GASTEIGER

@<TRIPOS>ATOM
      1 C          -9.2609   -7.5682   18.9893 C.3     1  UNL1        0.0899
      2 N         -10.4417   -6.6597   18.8147 N.3     1  UNL1       -0.2671
      3 C         -10.2563   -5.1719   18.8590 C.3     1  UNL1        0.0990
      4 C         -11.4371   -4.2634   18.6845 C.ar    1  UNL1       -0.0067
      5 C         -11.2517   -2.7756   18.7288 C.ar    1  UNL1        0.0334
      6 C         -12.4324   -1.8672   18.5543 C.ar    1  UNL1        0.1334
      7 O         -12.2470   -0.3793   18.5986 O.3     1  UNL1       -0.5055
      8 C         -13.7986   -2.4465   18.3354 C.ar    1  UNL1        0.0363
      9 C         -13.9840   -3.9343   18.2911 C.ar    1  UNL1       -0.0011
     10 C         -12.8033   -4.8428   18.4656 C.ar    1  UNL1       -0.0195
     11 C         -12.9886   -6.3307   18.4213 C.3     1  UNL1        0.0602
     12 C         -11.8079   -7.2391   18.5958 C.3     1  UNL1        0.0811
     13 H         -11.3936   -0.0173   18.7353 H       1  UNL1        0.2922
     14 C         -14.3548   -6.9100   18.2024 C.ar    1  UNL1       -0.0170
     15 C         -14.8062   -7.2637   16.8163 C.ar    1  UNL1       -0.0034
     16 C         -16.1724   -7.8431   16.5974 C.ar    1  UNL1        0.0062
     17 C         -17.0871   -8.0688   17.7646 C.ar    1  UNL1        0.0295
     18 S         -18.4791   -8.6201   17.8570 S.2     1  UNL1       -0.0864
     19 C         -18.8879   -8.6071   19.3001 C.ar    1  UNL1        0.0354
     20 C         -17.7487   -8.0478   20.0996 C.ar    1  UNL1        0.0075
     21 C         -16.6357   -7.7150   19.1507 C.ar    1  UNL1        0.0062
     22 C         -15.2696   -7.1357   19.3695 C.ar    1  UNL1       -0.0034
@<TRIPOS>BOND
     1     1     2    1
     2     2     3    1
     3     3     4    1
     4     4     5   ar
     5     5     6   ar
     6     6     7    1
     7     6     8   ar
     8     8     9   ar
     9     9    10   ar
    10    10    11    1
    11    11    14    1
    12    14    15   ar
    13    15    16   ar
    14    16    17   ar
    15    17    18   ar
    16    18    19   ar
    17    19    20   ar
    18    20    21   ar
    19    21    22   ar
    20    11    12    1
    21    12     2    1
    22    10     4   ar
    23    22    14   ar
    24    21    17   ar
    25     7    13    1
@<TRIPOS>MOLECULE
*****
 22 25 0 0 0
SMALL
GASTEIGER

@<TRIPOS>ATOM
      1 C         -19.0816   -4.4150   19.7358 C.3     1  UNL1        0.0899
      2 N         -18.1086   -5.4870   19.3429 N.3     1  UNL1       -0.2671
      3 C         -18.4960   -6.9312   19.4610 C.3     1  UNL1        0.0990
      4 C         -17.5230   -8.0033   19.0681 C.ar    1  UNL1       -0.0067
      5 C         -17.9104   -9.4475   19.1862 C.ar    1  UNL1        0.0334
      6 C         -16.9375  -10.5195   18.7934 C.ar    1  UNL1        0.1334
      7 O         -17.3248  -11.9638   18.9114 O.3     1  UNL1       -0.5055
      8 C         -15.5772  -10.1471   18.2825 C.ar    1  UNL1        0.0363
      9 C         -15.1898   -8.7028   18.1644 C.ar    1  UNL1       -0.0011
     10 C         -16.1628   -7.6309   18.5573 C.ar    1  UNL1       -0.0195
     11 C         -15.7754   -6.1865   18.4392 C.3     1  UNL1        0.0602
     12 C         -16.7484   -5.1146   18.8320 C.3     1  UNL1        0.0811
     13 H         -18.1745  -12.1964   19.2306 H       1  UNL1        0.2922
     14 C         -14.4152   -5.8142   17.9283 C.ar    1  UNL1       -0.0170
     15 C         -14.2362   -5.4157   16.4933 C.ar    1  UNL1       -0.0034
     16 C         -12.8759   -5.0433   15.9824 C.ar    1  UNL1        0.0062
     17 C         -11.6946   -5.0695   16.9065 C.ar    1  UNL1        0.0295
     18 S         -10.2438   -4.7562   16.6899 S.2     1  UNL1       -0.0864
     19 C          -9.5261   -4.9611   17.9911 C.ar    1  UNL1        0.0354
     20 C         -10.5334   -5.4010   19.0117 C.ar    1  UNL1        0.0075
     21 C         -11.8736   -5.4680   18.3415 C.ar    1  UNL1        0.0062
     22 C         -13.2339   -5.8403   18.8524 C.ar    1  UNL1       -0.0034
@<TRIPOS>BOND
     1     1     2    1
     2     2     3    1
     3     3     4    1
     4     4     5   ar
     5     5     6   ar
     6     6     7    1
     7     6     8   ar
     8     8     9   ar
     9     9    10   ar
    10    10    11    1
    11    11    14    1
    12    14    15   ar
    13    15    16   ar
    14    16    17   ar
    15    17    18   ar
    16    18    19   ar
    17    19    20   ar
    18    20    21   ar
    19    21    22   ar
    20    11    12    1
    21    12     2    1
    22    10     4   ar
    23    22    14   ar
    24    21    17   ar
    25     7    13    1
@<TRIPOS>MOLECULE
*****
 22 25 0 0 0
SMALL
GASTEIGER

@<TRIPOS>ATOM
      1 C           4.6222   -4.8777   18.7295 C.3     1  UNL1        0.0899
      2 N           4.3046   -3.8387   19.7639 N.3     1  UNL1       -0.2671
      3 C           4.8068   -4.0003   21.1680 C.3     1  UNL1        0.0990
      4 C           4.4893   -2.9614   22.2024 C.ar    1  UNL1       -0.0067
      5 C           4.9914   -3.1230   23.6066 C.ar    1  UNL1        0.0334
      6 C           4.6739   -2.0841   24.6408 C.ar    1  UNL1        0.1334
      7 O           5.1761   -2.2456   26.0451 O.3     1  UNL1       -0.5055
      8 C           3.8542   -0.8835   24.2710 C.ar    1  UNL1        0.0363
      9 C           3.3520   -0.7219   22.8668 C.ar    1  UNL1       -0.0011
     10 C           3.6695   -1.7608   21.8325 C.ar    1  UNL1       -0.0195
     11 C           3.1674   -1.5993   20.4283 C.3     1  UNL1        0.0602
     12 C           3.4849   -2.6382   19.3940 C.3     1  UNL1        0.0811
     13 H           5.6881   -2.9956   26.2761 H       1  UNL1        0.2922
     14 C           2.3477   -0.3987   20.0585 C.ar    1  UNL1       -0.0170
     15 C           0.8718   -0.3868   20.3265 C.ar    1  UNL1       -0.0034
     16 C           0.0521    0.8137   19.9566 C.ar    1  UNL1        0.0062
     17 C           0.7082    2.0023   19.3187 C.ar    1  UNL1        0.0295
     18 S           0.1623    3.3178   18.8482 S.2     1  UNL1       -0.0864
     19 C           1.3007    4.1189   18.2894 C.ar    1  UNL1        0.0354
     20 C           2.5502    3.2984   18.4146 C.ar    1  UNL1        0.0075
     21 C           2.1840    1.9903   19.0507 C.ar    1  UNL1        0.0062
     22 C           3.0037    0.7898   19.4206 C.ar    1  UNL1       -0.0034
@<TRIPOS>BOND
     1     1     2    1
     2     2     3    1
     3     3     4    1
     4     4     5   ar
     5     5     6   ar
     6     6     7    1
     7     6     8   ar
     8     8     9   ar
     9     9    10   ar
    10    10    11    1
    11    11    14    1
    12    14    15   ar
    13    15    16   ar
    14    16    17   ar
    15    17    18   ar
    16    18    19   ar
    17    19    20   ar
    18    20    21   ar
    19    21    22   ar
    20    11    12    1
    21    12     2    1
    22    10     4   ar
    23    22    14   ar
    24    21    17   ar
    25     7    13    1
@<TRIPOS>MOLECULE
*****
 22 25 0 0 0
SMALL
GASTEIGER

@<TRIPOS>ATOM
      1 C         -16.7126  -11.6747   18.9823 C.3     1  UNL1        0.0899
      2 N         -16.5805  -10.1806   18.9588 N.3     1  UNL1       -0.2671
      3 C         -17.7418   -9.3188   19.3571 C.3     1  UNL1        0.0990
      4 C         -17.6097   -7.8247   19.3336 C.ar    1  UNL1       -0.0067
      5 C         -18.7710   -6.9628   19.7319 C.ar    1  UNL1        0.0334
      6 C         -18.6389   -5.4689   19.7083 C.ar    1  UNL1        0.1334
      7 O         -19.8002   -4.6069   20.1067 O.3     1  UNL1       -0.5055
      8 C         -17.3456   -4.8368   19.2865 C.ar    1  UNL1        0.0363
      9 C         -16.1844   -5.6987   18.8882 C.ar    1  UNL1       -0.0011
     10 C         -16.3165   -7.1926   18.9118 C.ar    1  UNL1       -0.0195
     11 C         -15.1552   -8.0546   18.5134 C.3     1  UNL1        0.0602
     12 C         -15.2873   -9.5486   18.5370 C.3     1  UNL1        0.0811
     13 H         -20.6080   -5.0017   20.3702 H       1  UNL1        0.2922
     14 C         -13.8619   -7.4225   18.0916 C.ar    1  UNL1       -0.0170
     15 C         -13.3318   -7.6514   16.7072 C.ar    1  UNL1       -0.0034
     16 C         -12.0385   -7.0193   16.2854 C.ar    1  UNL1        0.0062
     17 C         -11.2754   -6.1584   17.2480 C.ar    1  UNL1        0.0295
     18 S          -9.9825   -5.4093   17.1171 S.2     1  UNL1       -0.0864
     19 C          -9.7136   -4.7175   18.4206 C.ar    1  UNL1        0.0354
     20 C         -10.8403   -5.0390   19.3571 C.ar    1  UNL1        0.0075
     21 C         -11.8056   -5.9295   18.6324 C.ar    1  UNL1        0.0062
     22 C         -13.0989   -6.5616   19.0542 C.ar    1  UNL1       -0.0034
@<TRIPOS>BOND
     1     1     2    1
     2     2     3    1
     3     3     4    1
     4     4     5   ar
     5     5     6   ar
     6     6     7    1
     7     6     8   ar
     8     8     9   ar
     9     9    10   ar
    10    10    11    1
    11    11    14    1
    12    14    15   ar
    13    15    16   ar
    14    16    17   ar
    15    17    18   ar
    16    18    19   ar
    17    19    20   ar
    18    20    21   ar
    19    21    22   ar
    20    11    12    1
    21    12     2    1
    22    10     4   ar
    23    22    14   ar
    24    21    17   ar
    25     7    13    1
@<TRIPOS>MOLECULE
*****
 22 25 0 0 0
SMALL
GASTEIGER

@<TRIPOS>ATOM
      1 C          -5.7409  -21.6266   19.9908 C.3     1  UNL1        0.0899
      2 N          -4.9943  -20.4202   20.4778 N.3     1  UNL1       -0.2671
      3 C          -3.6713  -20.0607   19.8692 C.3     1  UNL1        0.0990
      4 C          -2.9247  -18.8542   20.3563 C.ar    1  UNL1       -0.0067
      5 C          -1.6017  -18.4948   19.7477 C.ar    1  UNL1        0.0334
      6 C          -0.8552  -17.2884   20.2348 C.ar    1  UNL1        0.1334
      7 O           0.4679  -16.9288   19.6262 O.3     1  UNL1       -0.5055
      8 C          -1.4316  -16.4415   21.3304 C.ar    1  UNL1        0.0363
      9 C          -2.7546  -16.8010   21.9390 C.ar    1  UNL1       -0.0011
     10 C          -3.5012  -18.0073   21.4520 C.ar    1  UNL1       -0.0195
     11 C          -4.8242  -18.3669   22.0606 C.3     1  UNL1        0.0602
     12 C          -5.5708  -19.5733   21.5735 C.3     1  UNL1        0.0811
     13 H           0.8280  -17.4579   18.9417 H       1  UNL1        0.2922
     14 C          -5.4007  -17.5200   23.1562 C.ar    1  UNL1       -0.0170
     15 C          -4.5005  -16.9324   24.2024 C.ar    1  UNL1       -0.0034
     16 C          -5.0769  -16.0855   25.2981 C.ar    1  UNL1        0.0062
     17 C          -6.5536  -15.8262   25.3475 C.ar    1  UNL1        0.0295
     18 S          -7.4026  -15.0372   26.2996 S.2     1  UNL1       -0.0864
     19 C          -8.8276  -15.1372   25.8419 C.ar    1  UNL1        0.0354
     20 C          -8.8591  -15.9880   24.6069 C.ar    1  UNL1        0.0075
     21 C          -7.4537  -16.4138   24.3014 C.ar    1  UNL1        0.0062
     22 C          -6.8772  -17.2607   23.2057 C.ar    1  UNL1       -0.0034
@<TRIPOS>BOND
     1     1     2    1
     2     2     3    1
     3     3     4    1
     4     4     5   ar
     5     5     6   ar
     6     6     7    1
     7     6     8   ar
     8     8     9   ar
     9     9    10   ar
    10    10    11    1
    11    11    14    1
    12    14    15   ar
    13    15    16   ar
    14    16    17   ar
    15    17    18   ar
    16    18    19   ar
    17    19    20   ar
    18    20    21   ar
    19    21    22   ar
    20    11    12    1
    21    12     2    1
    22    10     4   ar
    23    22    14   ar
    24    21    17   ar
    25     7    13    1
@<TRIPOS>MOLECULE
*****
 22 25 0 0 0
SMALL
GASTEIGER

@<TRIPOS>ATOM
      1 C           3.9659   -0.9047   25.6173 C.3     1  UNL1        0.0899
      2 N           3.7584   -1.1621   24.1541 N.3     1  UNL1       -0.2671
      3 C           4.3003   -2.4129   23.5284 C.3     1  UNL1        0.0990
      4 C           4.0928   -2.6703   22.0653 C.ar    1  UNL1       -0.0067
      5 C           4.6347   -3.9212   21.4395 C.ar    1  UNL1        0.0334
      6 C           4.4272   -4.1785   19.9764 C.ar    1  UNL1        0.1334
      7 O           4.9692   -5.4295   19.3506 O.3     1  UNL1       -0.5055
      8 C           3.6777   -3.1850   19.1391 C.ar    1  UNL1        0.0363
      9 C           3.1358   -1.9341   19.7648 C.ar    1  UNL1       -0.0011
     10 C           3.3433   -1.6768   21.2279 C.ar    1  UNL1       -0.0195
     11 C           2.8014   -0.4259   21.8537 C.3     1  UNL1        0.0602
     12 C           3.0089   -0.1685   23.3168 C.3     1  UNL1        0.0811
     13 H           5.4373   -6.0501   19.8737 H       1  UNL1        0.2922
     14 C           2.0519    0.5676   21.0163 C.ar    1  UNL1       -0.0170
     15 C           0.5533    0.5260   20.9647 C.ar    1  UNL1       -0.0034
     16 C          -0.1962    1.5195   20.1273 C.ar    1  UNL1        0.0062
     17 C           0.5529    2.5547   19.3416 C.ar    1  UNL1        0.0295
     18 S           0.0895    3.6557   18.4345 S.2     1  UNL1       -0.0864
     19 C           1.3017    4.3779   17.9255 C.ar    1  UNL1        0.0354
     20 C           2.5142    3.7232   18.5181 C.ar    1  UNL1        0.0075
     21 C           2.0514    2.5964   19.3933 C.ar    1  UNL1        0.0062
     22 C           2.8009    1.6028   20.2307 C.ar    1  UNL1       -0.0034
@<TRIPOS>BOND
     1     1     2    1
     2     2     3    1
     3     3     4    1
     4     4     5   ar
     5     5     6   ar
     6     6     7    1
     7     6     8   ar
     8     8     9   ar
     9     9    10   ar
    10    10    11    1
    11    11    14    1
    12    14    15   ar
    13    15    16   ar
    14    16    17   ar
    15    17    18   ar
    16    18    19   ar
    17    19    20   ar
    18    20    21   ar
    19    21    22   ar
    20    11    12    1
    21    12     2    1
    22    10     4   ar
    23    22    14   ar
    24    21    17   ar
    25     7    13    1
@<TRIPOS>MOLECULE
*****
 22 25 0 0 0
SMALL
GASTEIGER

@<TRIPOS>ATOM
      1 C           7.6569    1.2033   17.2845 C.3     1  UNL1        0.0899
      2 N           6.5374    0.3594   17.8181 N.3     1  UNL1       -0.2671
      3 C           6.6805   -1.1330   17.8664 C.3     1  UNL1        0.0990
      4 C           5.5611   -1.9769   18.4000 C.ar    1  UNL1       -0.0067
      5 C           5.7042   -3.4693   18.4483 C.ar    1  UNL1        0.0334
      6 C           4.5848   -4.3132   18.9818 C.ar    1  UNL1        0.1334
      7 O           4.7279   -5.8056   19.0301 O.3     1  UNL1       -0.5055
      8 C           3.3223   -3.6647   19.4671 C.ar    1  UNL1        0.0363
      9 C           3.1791   -2.1724   19.4188 C.ar    1  UNL1       -0.0011
     10 C           4.2985   -1.3285   18.8852 C.ar    1  UNL1       -0.0195
     11 C           4.1554    0.1639   18.8369 C.3     1  UNL1        0.0602
     12 C           5.2748    1.0078   18.3033 C.3     1  UNL1        0.0811
     13 H           5.5166   -6.2107   18.7270 H       1  UNL1        0.2922
     14 C           2.8929    0.8124   19.3221 C.ar    1  UNL1       -0.0170
     15 C           1.7961    1.1379   18.3519 C.ar    1  UNL1       -0.0034
     16 C           0.5336    1.7864   18.8371 C.ar    1  UNL1        0.0062
     17 C           0.3678    2.1093   20.2926 C.ar    1  UNL1        0.0295
     18 S          -0.7555    2.7433   21.0584 S.2     1  UNL1       -0.0864
     19 C          -0.3529    2.8095   22.5018 C.ar    1  UNL1        0.0354
     20 C           1.0191    2.2165   22.6281 C.ar    1  UNL1        0.0075
     21 C           1.4645    1.7838   21.2627 C.ar    1  UNL1        0.0062
     22 C           2.7270    1.1353   20.7775 C.ar    1  UNL1       -0.0034
@<TRIPOS>BOND
     1     1     2    1
     2     2     3    1
     3     3     4    1
     4     4     5   ar
     5     5     6   ar
     6     6     7    1
     7     6     8   ar
     8     8     9   ar
     9     9    10   ar
    10    10    11    1
    11    11    14    1
    12    14    15   ar
    13    15    16   ar
    14    16    17   ar
    15    17    18   ar
    16    18    19   ar
    17    19    20   ar
    18    20    21   ar
    19    21    22   ar
    20    11    12    1
    21    12     2    1
    22    10     4   ar
    23    22    14   ar
    24    21    17   ar
    25     7    13    1
