@<TRIPOS>MOLECULE
*****
 28 31 0 0 0
SMALL
GASTEIGER

@<TRIPOS>ATOM
      1 N          -9.6376  -19.1966   20.2771 N.3     1  UNL1       -0.2962
      2 H          -9.5656  -18.7443   19.3657 H       1  UNL1        0.1235
      3 C          -8.2358  -19.4521   20.7456 C.3     1  UNL1        0.0545
      4 C          -7.8352  -20.3429   21.8841 C.3     1  UNL1        0.0161
      5 C          -6.3402  -20.3029   22.0001 C.3     1  UNL1        0.0058
      6 C          -5.8168  -19.3874   20.9333 C.3     1  UNL1        0.0237
      7 C          -6.9883  -18.8616   20.1581 C.3     1  UNL1        0.0201
      8 C          -4.3751  -19.0561   20.6855 C.ar    1  UNL1       -0.0225
      9 C          -3.3759  -19.1767   21.7977 C.ar    1  UNL1       -0.0042
     10 C          -1.9341  -18.8453   21.5499 C.ar    1  UNL1        0.0008
     11 C          -1.4915  -18.3933   20.1898 C.ar    1  UNL1        0.0140
     12 C          -2.4907  -18.2727   19.0776 C.ar    1  UNL1        0.0008
     13 C          -3.9325  -18.6040   19.3254 C.ar    1  UNL1       -0.0042
     14 C          -0.0497  -18.0619   19.9419 C.2     1  UNL1        0.0729
     15 O           0.4173  -16.6387   20.0220 O.co2   1  UNL1       -0.5446
     16 O           0.9252  -19.1538   19.6140 O.co2   1  UNL1       -0.5446
     17 C         -11.6944  -17.6188   20.4514 C.3     1  UNL1        0.0220
     18 C         -10.5639  -18.3565   21.1055 C.3     1  UNL1        0.0768
     19 C         -10.3597  -18.2541   22.5880 C.ar    1  UNL1       -0.0080
     20 C         -11.0528  -19.2142   23.5086 C.ar    1  UNL1       -0.0030
     21 C         -10.8486  -19.1118   24.9911 C.ar    1  UNL1       -0.0003
     22 C          -9.9513  -18.0492   25.5530 C.ar    1  UNL1       -0.0000
     23 C          -9.2581  -17.0890   24.6323 C.ar    1  UNL1       -0.0003
     24 C          -8.3608  -16.0264   25.1941 C.ar    1  UNL1       -0.0000
     25 C          -7.6677  -15.0663   24.2735 C.ar    1  UNL1       -0.0000
     26 C          -7.8719  -15.1687   22.7910 C.ar    1  UNL1       -0.0000
     27 C          -8.7692  -16.2312   22.2291 C.ar    1  UNL1       -0.0003
     28 C          -9.4623  -17.1914   23.1498 C.ar    1  UNL1       -0.0027
@<TRIPOS>UNITY_ATOM_ATTR
15 1
charge -1
@<TRIPOS>BOND
     1    18    17    1
     2    18     1    1
     3     1     3    1
     4     3     4    1
     5     4     5    1
     6     5     6    1
     7     6     8    1
     8     8     9   ar
     9     9    10   ar
    10    10    11   ar
    11    11    14    1
    12    14    15   ar
    13    14    16   ar
    14    11    12   ar
    15    12    13   ar
    16     6     7    1
    17    18    19    1
    18    19    20   ar
    19    20    21   ar
    20    21    22   ar
    21    22    23   ar
    22    23    24   ar
    23    24    25   ar
    24    25    26   ar
    25    26    27   ar
    26    27    28   ar
    27     7     3    1
    28    28    19   ar
    29    13     8   ar
    30    28    23   ar
    31     1     2    1
@<TRIPOS>MOLECULE
*****
 28 31 0 0 0
SMALL
GASTEIGER

@<TRIPOS>ATOM
      1 N          -6.3763  -18.8061   19.6557 N.3     1  UNL1       -0.2962
      2 H          -6.2261  -18.9967   18.6650 H       1  UNL1        0.1235
      3 C          -7.8401  -19.0033   19.9176 C.3     1  UNL1        0.0545
      4 C          -8.8485  -19.5257   18.9376 C.3     1  UNL1        0.0161
      5 C         -10.1841  -19.5580   19.6198 C.3     1  UNL1        0.0058
      6 C         -10.0011  -19.0557   21.0213 C.3     1  UNL1        0.0237
      7 C          -8.5524  -18.7129   21.2053 C.3     1  UNL1        0.0201
      8 C         -11.0777  -18.9201   22.0568 C.ar    1  UNL1       -0.0225
      9 C         -12.3561  -18.2110   21.7210 C.ar    1  UNL1       -0.0042
     10 C         -13.4328  -18.0753   22.7565 C.ar    1  UNL1        0.0008
     11 C         -13.2310  -18.6487   24.1278 C.ar    1  UNL1        0.0140
     12 C         -11.9525  -19.3577   24.4636 C.ar    1  UNL1        0.0008
     13 C         -10.8759  -19.4934   23.4281 C.ar    1  UNL1       -0.0042
     14 C         -14.3077  -18.5130   25.1635 C.2     1  UNL1        0.0729
     15 O         -15.7503  -18.5980   24.7612 O.co2   1  UNL1       -0.5446
     16 O         -13.9418  -18.2923   26.6013 O.co2   1  UNL1       -0.5446
     17 C          -5.3756  -21.1120   20.3127 C.3     1  UNL1        0.0220
     18 C          -5.3637  -19.6153   20.4107 C.3     1  UNL1        0.0768
     19 C          -4.3391  -18.9276   21.2636 C.ar    1  UNL1       -0.0080
     20 C          -4.5828  -18.7513   22.7331 C.ar    1  UNL1       -0.0030
     21 C          -3.5583  -18.0636   23.5861 C.ar    1  UNL1       -0.0003
     22 C          -2.2901  -17.5523   22.9695 C.ar    1  UNL1       -0.0000
     23 C          -2.0464  -17.7286   21.4999 C.ar    1  UNL1       -0.0003
     24 C          -0.7782  -17.2172   20.8833 C.ar    1  UNL1       -0.0000
     25 C          -0.5346  -17.3936   19.4138 C.ar    1  UNL1       -0.0000
     26 C          -1.5591  -18.0812   18.5609 C.ar    1  UNL1       -0.0000
     27 C          -2.8273  -18.5926   19.1774 C.ar    1  UNL1       -0.0003
     28 C          -3.0709  -18.4162   20.6470 C.ar    1  UNL1       -0.0027
@<TRIPOS>UNITY_ATOM_ATTR
15 1
charge -1
@<TRIPOS>BOND
     1    18    17    1
     2    18     1    1
     3     1     3    1
     4     3     4    1
     5     4     5    1
     6     5     6    1
     7     6     8    1
     8     8     9   ar
     9     9    10   ar
    10    10    11   ar
    11    11    14    1
    12    14    15   ar
    13    14    16   ar
    14    11    12   ar
    15    12    13   ar
    16     6     7    1
    17    18    19    1
    18    19    20   ar
    19    20    21   ar
    20    21    22   ar
    21    22    23   ar
    22    23    24   ar
    23    24    25   ar
    24    25    26   ar
    25    26    27   ar
    26    27    28   ar
    27     7     3    1
    28    28    19   ar
    29    13     8   ar
    30    28    23   ar
    31     1     2    1
@<TRIPOS>MOLECULE
*****
 28 31 0 0 0
SMALL
GASTEIGER

@<TRIPOS>ATOM
      1 N         -11.2865  -19.5157   21.0787 N.3     1  UNL1       -0.2962
      2 H         -11.9678  -19.4906   20.3201 H       1  UNL1        0.1235
      3 C          -9.9296  -19.5599   20.4409 C.3     1  UNL1        0.0545
      4 C          -9.6435  -19.8400   18.9953 C.3     1  UNL1        0.0161
      5 C          -8.1576  -19.7849   18.7977 C.3     1  UNL1        0.0058
      6 C          -7.5253  -19.4707   20.1211 C.3     1  UNL1        0.0237
      7 C          -8.6205  -19.3316   21.1367 C.3     1  UNL1        0.0201
      8 C          -6.0559  -19.3217   20.3830 C.ar    1  UNL1       -0.0225
      9 C          -5.1107  -19.0882   19.2419 C.ar    1  UNL1       -0.0042
     10 C          -3.6413  -18.9392   19.5037 C.ar    1  UNL1        0.0008
     11 C          -3.1171  -19.0237   20.9065 C.ar    1  UNL1        0.0140
     12 C          -4.0623  -19.2572   22.0476 C.ar    1  UNL1        0.0008
     13 C          -5.5317  -19.4062   21.7858 C.ar    1  UNL1       -0.0042
     14 C          -1.6476  -18.8747   21.1684 C.2     1  UNL1        0.0729
     15 O          -0.6720  -18.9475   20.0313 O.co2   1  UNL1       -0.5446
     16 O          -1.1537  -18.6528   22.5673 O.co2   1  UNL1       -0.5446
     17 C         -12.7994  -17.4987   21.7057 C.3     1  UNL1        0.0220
     18 C         -11.6393  -18.3978   22.0147 C.3     1  UNL1        0.0768
     19 C         -10.8318  -18.1791   23.2598 C.ar    1  UNL1       -0.0080
     20 C         -11.1089  -18.9965   24.4866 C.ar    1  UNL1       -0.0030
     21 C         -10.3014  -18.7778   25.7317 C.ar    1  UNL1       -0.0003
     22 C          -9.2169  -17.7418   25.7499 C.ar    1  UNL1       -0.0000
     23 C          -8.9398  -16.9243   24.5230 C.ar    1  UNL1       -0.0003
     24 C          -7.8553  -15.8883   24.5413 C.ar    1  UNL1       -0.0000
     25 C          -7.5782  -15.0709   23.3145 C.ar    1  UNL1       -0.0000
     26 C          -8.3857  -15.2896   22.0694 C.ar    1  UNL1       -0.0000
     27 C          -9.4702  -16.3257   22.0512 C.ar    1  UNL1       -0.0003
     28 C          -9.7472  -17.1430   23.2780 C.ar    1  UNL1       -0.0027
@<TRIPOS>UNITY_ATOM_ATTR
15 1
charge -1
@<TRIPOS>BOND
     1    18    17    1
     2    18     1    1
     3     1     3    1
     4     3     4    1
     5     4     5    1
     6     5     6    1
     7     6     8    1
     8     8     9   ar
     9     9    10   ar
    10    10    11   ar
    11    11    14    1
    12    14    15   ar
    13    14    16   ar
    14    11    12   ar
    15    12    13   ar
    16     6     7    1
    17    18    19    1
    18    19    20   ar
    19    20    21   ar
    20    21    22   ar
    21    22    23   ar
    22    23    24   ar
    23    24    25   ar
    24    25    26   ar
    25    26    27   ar
    26    27    28   ar
    27     7     3    1
    28    28    19   ar
    29    13     8   ar
    30    28    23   ar
    31     1     2    1
@<TRIPOS>MOLECULE
*****
 28 31 0 0 0
SMALL
GASTEIGER

@<TRIPOS>ATOM
      1 N          -4.3755  -15.8225   23.4362 N.3     1  UNL1       -0.2962
      2 H          -4.4364  -15.4748   22.4793 H       1  UNL1        0.1235
      3 C          -5.7712  -15.8254   23.9857 C.3     1  UNL1        0.0545
      4 C          -6.2204  -15.1644   25.2551 C.3     1  UNL1        0.0161
      5 C          -7.6897  -15.4202   25.4161 C.3     1  UNL1        0.0058
      6 C          -8.1485  -16.2393   24.2462 C.3     1  UNL1        0.0237
      7 C          -6.9628  -16.4896   23.3622 C.3     1  UNL1        0.0201
      8 C          -9.5474  -16.7229   24.0031 C.ar    1  UNL1       -0.0225
      9 C         -10.0449  -17.9574   24.6949 C.ar    1  UNL1       -0.0042
     10 C         -11.4438  -18.4412   24.4519 C.ar    1  UNL1        0.0008
     11 C         -12.3451  -17.6904   23.5171 C.ar    1  UNL1        0.0140
     12 C         -11.8476  -16.4559   22.8253 C.ar    1  UNL1        0.0008
     13 C         -10.4487  -15.9722   23.0683 C.ar    1  UNL1       -0.0042
     14 C         -13.7441  -18.1742   23.2740 C.2     1  UNL1        0.0729
     15 O         -14.6641  -18.4216   24.4326 O.co2   1  UNL1       -0.5446
     16 O         -14.2230  -18.4104   21.8722 O.co2   1  UNL1       -0.5446
     17 C          -3.2008  -17.7931   24.6558 C.3     1  UNL1        0.0220
     18 C          -3.5874  -17.0978   23.3841 C.3     1  UNL1        0.0768
     19 C          -3.1858  -17.6778   22.0603 C.ar    1  UNL1       -0.0080
     20 C          -1.9911  -17.1339   21.3346 C.ar    1  UNL1       -0.0030
     21 C          -1.5896  -17.7139   20.0108 C.ar    1  UNL1       -0.0003
     22 C          -2.3828  -18.8377   19.4128 C.ar    1  UNL1       -0.0000
     23 C          -3.5777  -19.3817   20.1385 C.ar    1  UNL1       -0.0003
     24 C          -4.3709  -20.5055   19.5404 C.ar    1  UNL1       -0.0000
     25 C          -5.5657  -21.0493   20.2662 C.ar    1  UNL1       -0.0000
     26 C          -5.9672  -20.4694   21.5900 C.ar    1  UNL1       -0.0000
     27 C          -5.1739  -19.3455   22.1880 C.ar    1  UNL1       -0.0003
     28 C          -3.9792  -18.8017   21.4623 C.ar    1  UNL1       -0.0027
@<TRIPOS>UNITY_ATOM_ATTR
15 1
charge -1
@<TRIPOS>BOND
     1    18    17    1
     2    18     1    1
     3     1     3    1
     4     3     4    1
     5     4     5    1
     6     5     6    1
     7     6     8    1
     8     8     9   ar
     9     9    10   ar
    10    10    11   ar
    11    11    14    1
    12    14    15   ar
    13    14    16   ar
    14    11    12   ar
    15    12    13   ar
    16     6     7    1
    17    18    19    1
    18    19    20   ar
    19    20    21   ar
    20    21    22   ar
    21    22    23   ar
    22    23    24   ar
    23    24    25   ar
    24    25    26   ar
    25    26    27   ar
    26    27    28   ar
    27     7     3    1
    28    28    19   ar
    29    13     8   ar
    30    28    23   ar
    31     1     2    1
@<TRIPOS>MOLECULE
*****
 28 31 0 0 0
SMALL
GASTEIGER

@<TRIPOS>ATOM
      1 N          -4.7004  -16.0732   23.4965 N.3     1  UNL1       -0.2962
      2 H          -4.7014  -15.7394   22.5326 H       1  UNL1        0.1235
      3 C          -6.1142  -15.9791   23.9888 C.3     1  UNL1        0.0545
      4 C          -6.5959  -15.1333   25.1302 C.3     1  UNL1        0.0161
      5 C          -8.0739  -15.3457   25.2729 C.3     1  UNL1        0.0058
      6 C          -8.5057  -16.3227   24.2197 C.3     1  UNL1        0.0237
      7 C          -7.2945  -16.7141   23.4261 C.3     1  UNL1        0.0201
      8 C          -9.9032  -16.8207   23.9990 C.ar    1  UNL1       -0.0225
      9 C         -10.3668  -18.0776   24.6738 C.ar    1  UNL1       -0.0042
     10 C         -11.7643  -18.5758   24.4531 C.ar    1  UNL1        0.0008
     11 C         -12.6983  -17.8169   23.5577 C.ar    1  UNL1        0.0140
     12 C         -12.2348  -16.5600   22.8830 C.ar    1  UNL1        0.0008
     13 C         -10.8372  -16.0619   23.1037 C.ar    1  UNL1       -0.0042
     14 C         -14.0960  -18.3150   23.3370 C.2     1  UNL1        0.0729
     15 O         -14.9666  -18.6511   24.5113 O.co2   1  UNL1       -0.5446
     16 O         -14.6229  -18.4770   21.9419 O.co2   1  UNL1       -0.5446
     17 C          -3.2838  -17.8676   24.7307 C.3     1  UNL1        0.0220
     18 C          -3.9929  -17.3959   23.4960 C.3     1  UNL1        0.0768
     19 C          -3.9947  -18.2469   22.2607 C.ar    1  UNL1       -0.0080
     20 C          -5.0422  -19.3052   22.0805 C.ar    1  UNL1       -0.0030
     21 C          -5.0440  -20.1562   20.8453 C.ar    1  UNL1       -0.0003
     22 C          -3.9981  -19.9488   19.7902 C.ar    1  UNL1       -0.0000
     23 C          -2.9505  -18.8905   19.9704 C.ar    1  UNL1       -0.0003
     24 C          -1.9047  -18.6831   18.9153 C.ar    1  UNL1       -0.0000
     25 C          -0.8571  -17.6248   19.0955 C.ar    1  UNL1       -0.0000
     26 C          -0.8553  -16.7738   20.3308 C.ar    1  UNL1       -0.0000
     27 C          -1.9012  -16.9812   21.3858 C.ar    1  UNL1       -0.0003
     28 C          -2.9487  -18.0395   21.2056 C.ar    1  UNL1       -0.0027
@<TRIPOS>UNITY_ATOM_ATTR
15 1
charge -1
@<TRIPOS>BOND
     1    18    17    1
     2    18     1    1
     3     1     3    1
     4     3     4    1
     5     4     5    1
     6     5     6    1
     7     6     8    1
     8     8     9   ar
     9     9    10   ar
    10    10    11   ar
    11    11    14    1
    12    14    15   ar
    13    14    16   ar
    14    11    12   ar
    15    12    13   ar
    16     6     7    1
    17    18    19    1
    18    19    20   ar
    19    20    21   ar
    20    21    22   ar
    21    22    23   ar
    22    23    24   ar
    23    24    25   ar
    24    25    26   ar
    25    26    27   ar
    26    27    28   ar
    27     7     3    1
    28    28    19   ar
    29    13     8   ar
    30    28    23   ar
    31     1     2    1
@<TRIPOS>MOLECULE
*****
 28 31 0 0 0
SMALL
GASTEIGER

@<TRIPOS>ATOM
      1 N          -6.4072  -18.9176   19.6670 N.3     1  UNL1       -0.2962
      2 H          -6.2469  -19.1152   18.6792 H       1  UNL1        0.1235
      3 C          -7.8821  -19.0555   19.9024 C.3     1  UNL1        0.0545
      4 C          -8.8994  -19.4931   18.8906 C.3     1  UNL1        0.0161
      5 C         -10.2448  -19.4880   19.5539 C.3     1  UNL1        0.0058
      6 C         -10.0591  -19.0472   20.9756 C.3     1  UNL1        0.0237
      7 C          -8.5989  -18.7799   21.1910 C.3     1  UNL1        0.0201
      8 C         -11.1431  -18.8997   22.0017 C.ar    1  UNL1       -0.0225
      9 C         -10.9423  -19.4376   23.3875 C.ar    1  UNL1       -0.0042
     10 C         -12.0264  -19.2901   24.4136 C.ar    1  UNL1        0.0008
     11 C         -13.3113  -18.6048   24.0540 C.ar    1  UNL1        0.0140
     12 C         -13.5121  -18.0669   22.6682 C.ar    1  UNL1        0.0008
     13 C         -12.4280  -18.2144   21.6420 C.ar    1  UNL1       -0.0042
     14 C         -14.3955  -18.4572   25.0802 C.2     1  UNL1        0.0729
     15 O         -14.0426  -18.1472   26.5047 O.co2   1  UNL1       -0.5446
     16 O         -15.8324  -18.6198   24.6817 O.co2   1  UNL1       -0.5446
     17 C          -5.5390  -21.2613   20.3764 C.3     1  UNL1        0.0220
     18 C          -5.4417  -19.7659   20.4405 C.3     1  UNL1        0.0768
     19 C          -4.3789  -19.1187   21.2781 C.ar    1  UNL1       -0.0080
     20 C          -2.9387  -19.4874   21.0786 C.ar    1  UNL1       -0.0030
     21 C          -1.8758  -18.8402   21.9162 C.ar    1  UNL1       -0.0003
     22 C          -2.2532  -17.8243   22.9532 C.ar    1  UNL1       -0.0000
     23 C          -3.6935  -17.4555   23.1527 C.ar    1  UNL1       -0.0003
     24 C          -4.0709  -16.4395   24.1897 C.ar    1  UNL1       -0.0000
     25 C          -5.5111  -16.0708   24.3891 C.ar    1  UNL1       -0.0000
     26 C          -6.5739  -16.7180   23.5515 C.ar    1  UNL1       -0.0000
     27 C          -6.1965  -17.7340   22.5145 C.ar    1  UNL1       -0.0003
     28 C          -4.7563  -18.1027   22.3151 C.ar    1  UNL1       -0.0027
@<TRIPOS>UNITY_ATOM_ATTR
15 1
charge -1
@<TRIPOS>BOND
     1    18    17    1
     2    18     1    1
     3     1     3    1
     4     3     4    1
     5     4     5    1
     6     5     6    1
     7     6     8    1
     8     8     9   ar
     9     9    10   ar
    10    10    11   ar
    11    11    14    1
    12    14    15   ar
    13    14    16   ar
    14    11    12   ar
    15    12    13   ar
    16     6     7    1
    17    18    19    1
    18    19    20   ar
    19    20    21   ar
    20    21    22   ar
    21    22    23   ar
    22    23    24   ar
    23    24    25   ar
    24    25    26   ar
    25    26    27   ar
    26    27    28   ar
    27     7     3    1
    28    28    19   ar
    29    13     8   ar
    30    28    23   ar
    31     1     2    1
@<TRIPOS>MOLECULE
*****
 28 31 0 0 0
SMALL
GASTEIGER

@<TRIPOS>ATOM
      1 N           6.7134   -4.6826   20.5142 N.3     1  UNL1       -0.2962
      2 H           6.4917   -5.5907   20.9222 H       1  UNL1        0.1235
      3 C           5.4201   -4.0992   20.0273 C.3     1  UNL1        0.0545
      4 C           4.3079   -4.8539   19.3613 C.3     1  UNL1        0.0161
      5 C           3.2123   -3.8799   19.0433 C.3     1  UNL1        0.0058
      6 C           3.6475   -2.5233   19.5126 C.3     1  UNL1        0.0237
      7 C           5.0120   -2.6589   20.1208 C.3     1  UNL1        0.0201
      8 C           2.8570   -1.2541   19.3945 C.ar    1  UNL1       -0.0225
      9 C           3.2823   -0.1933   18.4230 C.ar    1  UNL1       -0.0042
     10 C           2.4918    1.0760   18.3048 C.ar    1  UNL1        0.0008
     11 C           1.2760    1.2845   19.1582 C.ar    1  UNL1        0.0140
     12 C           0.8507    0.2238   20.1298 C.ar    1  UNL1        0.0008
     13 C           1.6412   -1.0455   20.2480 C.ar    1  UNL1       -0.0042
     14 C           0.4854    2.5539   19.0401 C.2     1  UNL1        0.0729
     15 O          -0.1581    2.9180   17.7350 O.co2   1  UNL1       -0.5446
     16 O           0.3384    3.4591   20.2272 O.co2   1  UNL1       -0.5446
     17 C           8.5862   -2.9712   21.0748 C.3     1  UNL1        0.0220
     18 C           7.5360   -3.9422   21.5268 C.3     1  UNL1        0.0768
     19 C           7.3084   -4.1728   22.9914 C.ar    1  UNL1       -0.0080
     20 C           6.4818   -3.2037   23.7836 C.ar    1  UNL1       -0.0030
     21 C           6.2542   -3.4343   25.2482 C.ar    1  UNL1       -0.0003
     22 C           6.8531   -4.6340   25.9205 C.ar    1  UNL1       -0.0000
     23 C           7.6797   -5.6031   25.1283 C.ar    1  UNL1       -0.0003
     24 C           8.2787   -6.8027   25.8006 C.ar    1  UNL1       -0.0000
     25 C           9.1053   -7.7717   25.0084 C.ar    1  UNL1       -0.0000
     26 C           9.3329   -7.5411   23.5438 C.ar    1  UNL1       -0.0000
     27 C           8.7340   -6.3415   22.8715 C.ar    1  UNL1       -0.0003
     28 C           7.9074   -5.3725   23.6637 C.ar    1  UNL1       -0.0027
@<TRIPOS>UNITY_ATOM_ATTR
15 1
charge -1
@<TRIPOS>BOND
     1    18    17    1
     2    18     1    1
     3     1     3    1
     4     3     4    1
     5     4     5    1
     6     5     6    1
     7     6     8    1
     8     8     9   ar
     9     9    10   ar
    10    10    11   ar
    11    11    14    1
    12    14    15   ar
    13    14    16   ar
    14    11    12   ar
    15    12    13   ar
    16     6     7    1
    17    18    19    1
    18    19    20   ar
    19    20    21   ar
    20    21    22   ar
    21    22    23   ar
    22    23    24   ar
    23    24    25   ar
    24    25    26   ar
    25    26    27   ar
    26    27    28   ar
    27     7     3    1
    28    28    19   ar
    29    13     8   ar
    30    28    23   ar
    31     1     2    1
@<TRIPOS>MOLECULE
*****
 28 31 0 0 0
SMALL
GASTEIGER

@<TRIPOS>ATOM
      1 N          -1.7507    2.9328   21.4745 N.3     1  UNL1       -0.2962
      2 H          -2.5330    3.3395   20.9616 H       1  UNL1        0.1235
      3 C          -0.7543    2.4733   20.4518 C.3     1  UNL1        0.0545
      4 C          -0.5128    3.1021   19.1114 C.3     1  UNL1        0.0161
      5 C           0.5663    2.3217   18.4210 C.3     1  UNL1        0.0058
      6 C           0.9916    1.2106   19.3346 C.3     1  UNL1        0.0237
      7 C           0.1755    1.3044   20.5896 C.3     1  UNL1        0.0201
      8 C           2.0477    0.1859   19.0441 C.ar    1  UNL1       -0.0225
      9 C           2.9380    0.3449   17.8474 C.ar    1  UNL1       -0.0042
     10 C           3.9941   -0.6799   17.5568 C.ar    1  UNL1        0.0008
     11 C           4.1600   -1.8636   18.4630 C.ar    1  UNL1        0.0140
     12 C           3.2698   -2.0226   19.6598 C.ar    1  UNL1        0.0008
     13 C           2.2136   -0.9978   19.9503 C.ar    1  UNL1       -0.0042
     14 C           5.2162   -2.8884   18.1725 C.2     1  UNL1        0.0729
     15 O           4.9893   -4.3246   18.5410 O.co2   1  UNL1       -0.5446
     16 O           6.4993   -2.4770   17.5134 O.co2   1  UNL1       -0.5446
     17 C          -0.3677    5.0171   22.1766 C.3     1  UNL1        0.0220
     18 C          -1.3485    3.9344   22.5163 C.3     1  UNL1        0.0768
     19 C          -1.9273    3.8531   23.8978 C.ar    1  UNL1       -0.0080
     20 C          -3.1535    4.6442   24.2450 C.ar    1  UNL1       -0.0030
     21 C          -3.7322    4.5629   25.6264 C.ar    1  UNL1       -0.0003
     22 C          -3.0848    3.6905   26.6607 C.ar    1  UNL1       -0.0000
     23 C          -1.8585    2.8994   26.3135 C.ar    1  UNL1       -0.0003
     24 C          -1.2110    2.0270   27.3478 C.ar    1  UNL1       -0.0000
     25 C           0.0152    1.2360   27.0006 C.ar    1  UNL1       -0.0000
     26 C           0.5939    1.3173   25.6191 C.ar    1  UNL1       -0.0000
     27 C          -0.0536    2.1896   24.5849 C.ar    1  UNL1       -0.0003
     28 C          -1.2798    2.9807   24.9321 C.ar    1  UNL1       -0.0027
@<TRIPOS>UNITY_ATOM_ATTR
15 1
charge -1
@<TRIPOS>BOND
     1    18    17    1
     2    18     1    1
     3     1     3    1
     4     3     4    1
     5     4     5    1
     6     5     6    1
     7     6     8    1
     8     8     9   ar
     9     9    10   ar
    10    10    11   ar
    11    11    14    1
    12    14    15   ar
    13    14    16   ar
    14    11    12   ar
    15    12    13   ar
    16     6     7    1
    17    18    19    1
    18    19    20   ar
    19    20    21   ar
    20    21    22   ar
    21    22    23   ar
    22    23    24   ar
    23    24    25   ar
    24    25    26   ar
    25    26    27   ar
    26    27    28   ar
    27     7     3    1
    28    28    19   ar
    29    13     8   ar
    30    28    23   ar
    31     1     2    1
@<TRIPOS>MOLECULE
*****
 28 31 0 0 0
SMALL
GASTEIGER

@<TRIPOS>ATOM
      1 N           6.7641   -2.5805   19.3292 N.3     1  UNL1       -0.2962
      2 H           6.8293   -1.6156   19.6535 H       1  UNL1        0.1235
      3 C           7.5731   -3.4122   20.2798 C.3     1  UNL1        0.0545
      4 C           9.0323   -3.7341   20.1477 C.3     1  UNL1        0.0161
      5 C           9.4260   -4.5890   21.3157 C.3     1  UNL1        0.0058
      6 C           8.2102   -4.7954   22.1697 C.3     1  UNL1        0.0237
      7 C           7.0651   -4.0682   21.5295 C.3     1  UNL1        0.0201
      8 C           8.1501   -5.5897   23.4407 C.ar    1  UNL1       -0.0225
      9 C           7.4130   -5.0479   24.6295 C.ar    1  UNL1       -0.0042
     10 C           7.3529   -5.8421   25.9005 C.ar    1  UNL1        0.0008
     11 C           8.0299   -7.1781   25.9828 C.ar    1  UNL1        0.0140
     12 C           8.7671   -7.7199   24.7940 C.ar    1  UNL1        0.0008
     13 C           8.8272   -6.9256   23.5230 C.ar    1  UNL1       -0.0042
     14 C           7.9699   -7.9724   27.2539 C.2     1  UNL1        0.0729
     15 O           8.2707   -7.3113   28.5663 O.co2   1  UNL1       -0.5446
     16 O           7.6090   -9.4278   27.2125 O.co2   1  UNL1       -0.5446
     17 C           4.8495   -4.2823   18.8957 C.3     1  UNL1        0.0220
     18 C           5.3064   -2.8730   19.1304 C.3     1  UNL1        0.0768
     19 C           4.3056   -1.7562   19.1662 C.ar    1  UNL1       -0.0080
     20 C           3.8666   -1.1013   17.8902 C.ar    1  UNL1       -0.0030
     21 C           2.8658    0.0155   17.9261 C.ar    1  UNL1       -0.0003
     22 C           2.3041    0.4774   19.2379 C.ar    1  UNL1       -0.0000
     23 C           2.7432   -0.1776   20.5141 C.ar    1  UNL1       -0.0003
     24 C           2.1814    0.2843   21.8260 C.ar    1  UNL1       -0.0000
     25 C           2.6205   -0.3706   23.1020 C.ar    1  UNL1       -0.0000
     26 C           3.6212   -1.4874   23.0661 C.ar    1  UNL1       -0.0000
     27 C           4.1829   -1.9492   21.7543 C.ar    1  UNL1       -0.0003
     28 C           3.7439   -1.2943   20.4782 C.ar    1  UNL1       -0.0027
@<TRIPOS>UNITY_ATOM_ATTR
15 1
charge -1
@<TRIPOS>BOND
     1    18    17    1
     2    18     1    1
     3     1     3    1
     4     3     4    1
     5     4     5    1
     6     5     6    1
     7     6     8    1
     8     8     9   ar
     9     9    10   ar
    10    10    11   ar
    11    11    14    1
    12    14    15   ar
    13    14    16   ar
    14    11    12   ar
    15    12    13   ar
    16     6     7    1
    17    18    19    1
    18    19    20   ar
    19    20    21   ar
    20    21    22   ar
    21    22    23   ar
    22    23    24   ar
    23    24    25   ar
    24    25    26   ar
    25    26    27   ar
    26    27    28   ar
    27     7     3    1
    28    28    19   ar
    29    13     8   ar
    30    28    23   ar
    31     1     2    1
