@<TRIPOS>MOLECULE
*****
 27 31 0 0 0
SMALL
GASTEIGER

@<TRIPOS>ATOM
      1 O           9.1638   -5.3459   20.8535 O.2     1  UNL1       -0.2638
      2 C           8.0160   -4.6258   21.4971 C.2     1  UNL1        0.3160
      3 N           7.0765   -3.8112   20.6581 N.am    1  UNL1       -0.1720
      4 C           5.9287   -3.0911   21.3017 C.ar    1  UNL1        0.0775
      5 C           4.9892   -2.2766   20.4628 C.ar    1  UNL1        0.0167
      6 C           3.8415   -1.5565   21.1063 C.ar    1  UNL1        0.0013
      7 C           3.6332   -1.6510   22.5888 C.ar    1  UNL1        0.0002
      8 C           4.5727   -2.4655   23.4277 C.ar    1  UNL1        0.0051
      9 C           5.7205   -3.1856   22.7841 C.ar    1  UNL1        0.0623
     10 C           6.6600   -4.0002   23.6231 C.2     1  UNL1        0.2419
     11 N           6.7068   -4.2768   25.0966 N.2     1  UNL1       -0.0302
     12 C           7.8836   -5.1678   25.3637 C.2     1  UNL1        0.3765
     13 N           8.5640   -5.4419   24.0553 N.2     1  UNL1       -0.0256
     14 C           7.8077   -4.7202   22.9795 C.2     1  UNL1        0.2907
     15 C           8.3058   -5.6926   26.7041 C.ar    1  UNL1        0.0989
     16 C           9.0396   -4.8011   27.6614 C.ar    1  UNL1        0.0085
     17 C           9.4618   -5.3259   29.0016 C.ar    1  UNL1        0.0003
     18 C           9.1501   -6.7423   29.3845 C.ar    1  UNL1        0.0009
     19 C           8.4162   -7.6339   28.4272 C.ar    1  UNL1        0.0116
     20 C           7.9941   -7.1091   27.0870 C.ar    1  UNL1        0.0651
     21 CL          7.2602   -8.0006   26.1296 Cl      1  UNL1       -0.0820
     22 C           2.9019   -0.7419   20.2674 C.ar    1  UNL1        0.0000
     23 C           1.4883   -0.5253   20.7199 C.ar    1  UNL1        0.0000
     24 C           0.5488    0.2892   19.8810 C.ar    1  UNL1        0.0000
     25 C           1.0228    0.8872   18.5896 C.ar    1  UNL1        0.0000
     26 C           2.4364    0.6706   18.1370 C.ar    1  UNL1        0.0000
     27 C           3.3760   -0.1440   18.9760 C.ar    1  UNL1        0.0000
@<TRIPOS>BOND
     1     1     2    2
     2     2     3    1
     3     3     4    2
     4     4     5   ar
     5     5     6   ar
     6     6    22    1
     7    22    23   ar
     8    23    24   ar
     9    24    25   ar
    10    25    26   ar
    11    26    27   ar
    12     6     7   ar
    13     7     8   ar
    14     8     9   ar
    15     9    10    2
    16    10    11    1
    17    11    12    2
    18    12    15    1
    19    15    16   ar
    20    16    17   ar
    21    17    18   ar
    22    18    19   ar
    23    19    20   ar
    24    20    21    1
    25    12    13    1
    26    13    14    2
    27    14     2    1
    28     9     4   ar
    29    14    10    1
    30    27    22   ar
    31    20    15   ar
@<TRIPOS>MOLECULE
*****
 27 31 0 0 0
SMALL
GASTEIGER

@<TRIPOS>ATOM
      1 O           0.0562    5.9043   17.9049 O.2     1  UNL1       -0.2638
      2 C           0.1165    4.5313   18.5062 C.2     1  UNL1        0.3160
      3 N           1.2717    3.6265   18.1952 N.am    1  UNL1       -0.1720
      4 C           1.3320    2.2535   18.7965 C.ar    1  UNL1        0.0775
      5 C           2.4872    1.3487   18.4855 C.ar    1  UNL1        0.0167
      6 C           2.5475   -0.0242   19.0868 C.ar    1  UNL1        0.0013
      7 C           1.4526   -0.4922   19.9991 C.ar    1  UNL1        0.0002
      8 C           0.2974    0.4127   20.3101 C.ar    1  UNL1        0.0051
      9 C           0.2372    1.7856   19.7088 C.ar    1  UNL1        0.0623
     10 C          -0.9180    2.6905   20.0198 C.2     1  UNL1        0.2419
     11 N          -2.1348    2.5061   20.8773 N.2     1  UNL1       -0.0302
     12 C          -2.9472    3.7651   20.8060 C.2     1  UNL1        0.3765
     13 N          -2.2324    4.7275   19.9044 N.2     1  UNL1       -0.0256
     14 C          -0.9783    4.0634   19.4185 C.2     1  UNL1        0.2907
     15 C          -4.2463    4.0174   21.5123 C.ar    1  UNL1        0.0989
     16 C          -5.4797    4.3393   20.7216 C.ar    1  UNL1        0.0085
     17 C          -6.7787    4.5916   21.4279 C.ar    1  UNL1        0.0003
     18 C          -6.8443    4.5218   22.9249 C.ar    1  UNL1        0.0009
     19 C          -5.6110    4.1998   23.7155 C.ar    1  UNL1        0.0116
     20 C          -4.3120    3.9476   23.0092 C.ar    1  UNL1        0.0651
     21 CL         -3.0785    3.6256   23.7999 Cl      1  UNL1       -0.0820
     22 C           3.7027   -0.9292   18.7758 C.ar    1  UNL1        0.0000
     23 C           4.9106   -0.3879   18.0701 C.ar    1  UNL1        0.0000
     24 C           6.0657   -1.2928   17.7591 C.ar    1  UNL1        0.0000
     25 C           6.0130   -2.7390   18.1538 C.ar    1  UNL1        0.0000
     26 C           4.8051   -3.2803   18.8595 C.ar    1  UNL1        0.0000
     27 C           3.6499   -2.3753   19.1705 C.ar    1  UNL1        0.0000
@<TRIPOS>BOND
     1     1     2    2
     2     2     3    1
     3     3     4    2
     4     4     5   ar
     5     5     6   ar
     6     6    22    1
     7    22    23   ar
     8    23    24   ar
     9    24    25   ar
    10    25    26   ar
    11    26    27   ar
    12     6     7   ar
    13     7     8   ar
    14     8     9   ar
    15     9    10    2
    16    10    11    1
    17    11    12    2
    18    12    15    1
    19    15    16   ar
    20    16    17   ar
    21    17    18   ar
    22    18    19   ar
    23    19    20   ar
    24    20    21    1
    25    12    13    1
    26    13    14    2
    27    14     2    1
    28     9     4   ar
    29    14    10    1
    30    27    22   ar
    31    20    15   ar
@<TRIPOS>MOLECULE
*****
 27 31 0 0 0
SMALL
GASTEIGER

@<TRIPOS>ATOM
      1 O           0.8508    3.3803   25.1361 O.2     1  UNL1       -0.2638
      2 C           0.7722    2.5824   23.8683 C.2     1  UNL1        0.3160
      3 N           1.8046    1.5340   23.5768 N.am    1  UNL1       -0.1720
      4 C           1.7260    0.7361   22.3090 C.ar    1  UNL1        0.0775
      5 C           2.7584   -0.3123   22.0174 C.ar    1  UNL1        0.0167
      6 C           2.6798   -1.1102   20.7497 C.ar    1  UNL1        0.0013
      7 C           1.5687   -0.8597   19.7736 C.ar    1  UNL1        0.0002
      8 C           0.5363    0.1886   20.0652 C.ar    1  UNL1        0.0051
      9 C           0.6149    0.9865   21.3329 C.ar    1  UNL1        0.0623
     10 C          -0.4175    2.0349   21.6245 C.2     1  UNL1        0.2419
     11 N          -1.6188    2.5015   20.8569 N.2     1  UNL1       -0.0302
     12 C          -2.2826    3.5878   21.6502 C.2     1  UNL1        0.3765
     13 N          -1.4916    3.7925   22.9081 N.2     1  UNL1       -0.0256
     14 C          -0.3389    2.8328   22.8922 C.2     1  UNL1        0.2907
     15 C          -3.5202    4.3376   21.2549 C.ar    1  UNL1        0.0989
     16 C          -3.4318    5.4632   20.2674 C.ar    1  UNL1        0.0085
     17 C          -4.6694    6.2130   19.8722 C.ar    1  UNL1        0.0003
     18 C          -5.9952    5.8372   20.4645 C.ar    1  UNL1        0.0009
     19 C          -6.0836    4.7117   21.4521 C.ar    1  UNL1        0.0116
     20 C          -4.8460    3.9619   21.8473 C.ar    1  UNL1        0.0651
     21 CL         -4.9343    2.8363   22.8349 Cl      1  UNL1       -0.0820
     22 C           3.7122   -2.1586   20.4581 C.ar    1  UNL1        0.0000
     23 C           3.5360   -3.0794   19.2872 C.ar    1  UNL1        0.0000
     24 C           4.5684   -4.1278   18.9955 C.ar    1  UNL1        0.0000
     25 C           5.7770   -4.2553   19.8748 C.ar    1  UNL1        0.0000
     26 C           5.9532   -3.3345   21.0457 C.ar    1  UNL1        0.0000
     27 C           4.9208   -2.2861   21.3373 C.ar    1  UNL1        0.0000
@<TRIPOS>BOND
     1     1     2    2
     2     2     3    1
     3     3     4    2
     4     4     5   ar
     5     5     6   ar
     6     6    22    1
     7    22    23   ar
     8    23    24   ar
     9    24    25   ar
    10    25    26   ar
    11    26    27   ar
    12     6     7   ar
    13     7     8   ar
    14     8     9   ar
    15     9    10    2
    16    10    11    1
    17    11    12    2
    18    12    15    1
    19    15    16   ar
    20    16    17   ar
    21    17    18   ar
    22    18    19   ar
    23    19    20   ar
    24    20    21    1
    25    12    13    1
    26    13    14    2
    27    14     2    1
    28     9     4   ar
    29    14    10    1
    30    27    22   ar
    31    20    15   ar
@<TRIPOS>MOLECULE
*****
 27 31 0 0 0
SMALL
GASTEIGER

@<TRIPOS>ATOM
      1 O           6.9158   -2.3197   17.3975 O.2     1  UNL1       -0.2638
      2 C           6.4800   -2.4081   18.8301 C.2     1  UNL1        0.3160
      3 N           7.1316   -3.3949   19.7528 N.am    1  UNL1       -0.1720
      4 C           6.6958   -3.4832   21.1854 C.ar    1  UNL1        0.0775
      5 C           7.3475   -4.4701   22.1081 C.ar    1  UNL1        0.0167
      6 C           6.9116   -4.5584   23.5407 C.ar    1  UNL1        0.0013
      7 C           5.8241   -3.6599   24.0505 C.ar    1  UNL1        0.0002
      8 C           5.1725   -2.6730   23.1278 C.ar    1  UNL1        0.0051
      9 C           5.6083   -2.5847   21.6953 C.ar    1  UNL1        0.0623
     10 C           4.9566   -1.5978   20.7725 C.2     1  UNL1        0.2419
     11 N           3.8670   -0.5899   20.9886 N.2     1  UNL1       -0.0302
     12 C           3.6294    0.1214   19.6895 C.2     1  UNL1        0.3765
     13 N           4.5722   -0.4469   18.6706 N.2     1  UNL1       -0.0256
     14 C           5.3925   -1.5095   19.3400 C.2     1  UNL1        0.2907
     15 C           2.6252    1.2100   19.4511 C.ar    1  UNL1        0.0989
     16 C           3.0811    2.5639   18.9938 C.ar    1  UNL1        0.0085
     17 C           2.0770    3.6524   18.7555 C.ar    1  UNL1        0.0003
     18 C           0.6170    3.3870   18.9745 C.ar    1  UNL1        0.0009
     19 C           0.1611    2.0331   19.4317 C.ar    1  UNL1        0.0116
     20 C           1.1652    0.9446   19.6701 C.ar    1  UNL1        0.0651
     21 CL          0.7094   -0.4093   20.1274 Cl      1  UNL1       -0.0820
     22 C           7.5633   -5.5453   24.4634 C.ar    1  UNL1        0.0000
     23 C           7.4028   -5.4031   25.9480 C.ar    1  UNL1        0.0000
     24 C           8.0544   -6.3899   26.8708 C.ar    1  UNL1        0.0000
     25 C           8.8666   -7.5190   26.3090 C.ar    1  UNL1        0.0000
     26 C           9.0271   -7.6612   24.8244 C.ar    1  UNL1        0.0000
     27 C           8.3755   -6.6743   23.9016 C.ar    1  UNL1        0.0000
@<TRIPOS>BOND
     1     1     2    2
     2     2     3    1
     3     3     4    2
     4     4     5   ar
     5     5     6   ar
     6     6    22    1
     7    22    23   ar
     8    23    24   ar
     9    24    25   ar
    10    25    26   ar
    11    26    27   ar
    12     6     7   ar
    13     7     8   ar
    14     8     9   ar
    15     9    10    2
    16    10    11    1
    17    11    12    2
    18    12    15    1
    19    15    16   ar
    20    16    17   ar
    21    17    18   ar
    22    18    19   ar
    23    19    20   ar
    24    20    21    1
    25    12    13    1
    26    13    14    2
    27    14     2    1
    28     9     4   ar
    29    14    10    1
    30    27    22   ar
    31    20    15   ar
@<TRIPOS>MOLECULE
*****
 27 31 0 0 0
SMALL
GASTEIGER

@<TRIPOS>ATOM
      1 O           8.2348   -6.6307   30.0859 O.2     1  UNL1       -0.2638
      2 C           7.6390   -5.5019   29.2979 C.2     1  UNL1        0.3160
      3 N           7.4968   -5.6193   27.8094 N.am    1  UNL1       -0.1720
      4 C           6.9010   -4.4905   27.0214 C.ar    1  UNL1        0.0775
      5 C           6.7588   -4.6079   25.5329 C.ar    1  UNL1        0.0167
      6 C           6.1630   -3.4791   24.7450 C.ar    1  UNL1        0.0013
      7 C           5.7093   -2.2328   25.4458 C.ar    1  UNL1        0.0002
      8 C           5.8515   -2.1154   26.9344 C.ar    1  UNL1        0.0051
      9 C           6.4473   -3.2442   27.7222 C.ar    1  UNL1        0.0623
     10 C           6.5895   -3.1268   29.2109 C.2     1  UNL1        0.2419
     11 N           6.2344   -2.0292   30.1695 N.2     1  UNL1       -0.0302
     12 C           6.6107   -2.4797   31.5499 C.2     1  UNL1        0.3765
     13 N           7.1984   -3.8557   31.4443 N.2     1  UNL1       -0.0256
     14 C           7.1853   -4.2556   29.9987 C.2     1  UNL1        0.2907
     15 C           6.4308   -1.6923   32.8140 C.ar    1  UNL1        0.0989
     16 C           7.5870   -0.9349   33.3967 C.ar    1  UNL1        0.0085
     17 C           7.4071   -0.1476   34.6607 C.ar    1  UNL1        0.0003
     18 C           6.0711   -0.1177   35.3420 C.ar    1  UNL1        0.0009
     19 C           4.9149   -0.8752   34.7593 C.ar    1  UNL1        0.0116
     20 C           5.0948   -1.6625   33.4953 C.ar    1  UNL1        0.0651
     21 CL          3.9387   -2.4200   32.9126 Cl      1  UNL1       -0.0820
     22 C           6.0208   -3.5964   23.2564 C.ar    1  UNL1        0.0000
     23 C           4.6608   -3.5399   22.6261 C.ar    1  UNL1        0.0000
     24 C           4.5186   -3.6573   21.1375 C.ar    1  UNL1        0.0000
     25 C           5.7364   -3.8312   20.2791 C.ar    1  UNL1        0.0000
     26 C           7.0964   -3.8877   20.9093 C.ar    1  UNL1        0.0000
     27 C           7.2385   -3.7703   22.3980 C.ar    1  UNL1        0.0000
@<TRIPOS>BOND
     1     1     2    2
     2     2     3    1
     3     3     4    2
     4     4     5   ar
     5     5     6   ar
     6     6    22    1
     7    22    23   ar
     8    23    24   ar
     9    24    25   ar
    10    25    26   ar
    11    26    27   ar
    12     6     7   ar
    13     7     8   ar
    14     8     9   ar
    15     9    10    2
    16    10    11    1
    17    11    12    2
    18    12    15    1
    19    15    16   ar
    20    16    17   ar
    21    17    18   ar
    22    18    19   ar
    23    19    20   ar
    24    20    21    1
    25    12    13    1
    26    13    14    2
    27    14     2    1
    28     9     4   ar
    29    14    10    1
    30    27    22   ar
    31    20    15   ar
@<TRIPOS>MOLECULE
*****
 27 31 0 0 0
SMALL
GASTEIGER

@<TRIPOS>ATOM
      1 O           7.7668   -6.0296   23.8565 O.2     1  UNL1       -0.2638
      2 C           6.8949   -4.8185   24.0092 C.2     1  UNL1        0.3160
      3 N           6.1552   -4.2726   22.8240 N.am    1  UNL1       -0.1720
      4 C           5.2833   -3.0616   22.9768 C.ar    1  UNL1        0.0775
      5 C           4.5437   -2.5156   21.7915 C.ar    1  UNL1        0.0167
      6 C           3.6718   -1.3047   21.9443 C.ar    1  UNL1        0.0013
      7 C           3.5396   -0.6397   23.2823 C.ar    1  UNL1        0.0002
      8 C           4.2793   -1.1856   24.4676 C.ar    1  UNL1        0.0051
      9 C           5.1511   -2.3966   24.3148 C.ar    1  UNL1        0.0623
     10 C           5.8908   -2.9426   25.5000 C.2     1  UNL1        0.2419
     11 N           5.9549   -2.5030   26.9327 N.2     1  UNL1       -0.0302
     12 C           6.8664   -3.4423   27.6654 C.2     1  UNL1        0.3765
     13 N           7.3657   -4.4624   26.6855 N.2     1  UNL1       -0.0256
     14 C           6.7627   -4.1535   25.3472 C.2     1  UNL1        0.2907
     15 C           7.2172   -3.3735   29.1223 C.ar    1  UNL1        0.0989
     16 C           7.4797   -2.0457   29.7686 C.ar    1  UNL1        0.0085
     17 C           7.8304   -1.9770   31.2254 C.ar    1  UNL1        0.0003
     18 C           7.9185   -3.2361   32.0358 C.ar    1  UNL1        0.0009
     19 C           7.6560   -4.5640   31.3895 C.ar    1  UNL1        0.0116
     20 C           7.3053   -4.6327   29.9327 C.ar    1  UNL1        0.0651
     21 CL          7.0427   -5.9606   29.2862 Cl      1  UNL1       -0.0820
     22 C           2.9321   -0.7586   20.7591 C.ar    1  UNL1        0.0000
     23 C           1.5016   -0.3299   20.9002 C.ar    1  UNL1        0.0000
     24 C           0.7619    0.2161   19.7150 C.ar    1  UNL1        0.0000
     25 C           1.4527    0.3334   18.3886 C.ar    1  UNL1        0.0000
     26 C           2.8832   -0.0954   18.2475 C.ar    1  UNL1        0.0000
     27 C           3.6229   -0.6414   19.4328 C.ar    1  UNL1        0.0000
@<TRIPOS>BOND
     1     1     2    2
     2     2     3    1
     3     3     4    2
     4     4     5   ar
     5     5     6   ar
     6     6    22    1
     7    22    23   ar
     8    23    24   ar
     9    24    25   ar
    10    25    26   ar
    11    26    27   ar
    12     6     7   ar
    13     7     8   ar
    14     8     9   ar
    15     9    10    2
    16    10    11    1
    17    11    12    2
    18    12    15    1
    19    15    16   ar
    20    16    17   ar
    21    17    18   ar
    22    18    19   ar
    23    19    20   ar
    24    20    21    1
    25    12    13    1
    26    13    14    2
    27    14     2    1
    28     9     4   ar
    29    14    10    1
    30    27    22   ar
    31    20    15   ar
@<TRIPOS>MOLECULE
*****
 27 31 0 0 0
SMALL
GASTEIGER

@<TRIPOS>ATOM
      1 O           0.2446    2.4181   17.9205 O.2     1  UNL1       -0.2638
      2 C           0.3273    2.0978   19.3836 C.2     1  UNL1        0.3160
      3 N          -0.4621    2.9024   20.3733 N.am    1  UNL1       -0.1720
      4 C          -0.3794    2.5821   21.8364 C.ar    1  UNL1        0.0775
      5 C          -1.1688    3.3867   22.8261 C.ar    1  UNL1        0.0167
      6 C          -1.0861    3.0663   24.2891 C.ar    1  UNL1        0.0013
      7 C          -0.2140    1.9414   24.7625 C.ar    1  UNL1        0.0002
      8 C           0.5754    1.1368   23.7728 C.ar    1  UNL1        0.0051
      9 C           0.4927    1.4572   22.3098 C.ar    1  UNL1        0.0623
     10 C           1.2821    0.6526   21.3200 C.2     1  UNL1        0.2419
     11 N           2.2199   -0.5059   21.4887 N.2     1  UNL1       -0.0302
     12 C           2.7168   -0.9015   20.1298 C.2     1  UNL1        0.3765
     13 N           2.0861    0.0124   19.1214 N.2     1  UNL1       -0.0256
     14 C           1.1994    0.9729   19.8570 C.2     1  UNL1        0.2907
     15 C           3.6761   -2.0156   19.8317 C.ar    1  UNL1        0.0989
     16 C           3.1610   -3.3419   19.3570 C.ar    1  UNL1        0.0085
     17 C           4.1202   -4.4559   19.0589 C.ar    1  UNL1        0.0003
     18 C           5.5946   -4.2435   19.2355 C.ar    1  UNL1        0.0009
     19 C           6.1097   -2.9171   19.7102 C.ar    1  UNL1        0.0116
     20 C           5.1504   -1.8031   20.0083 C.ar    1  UNL1        0.0651
     21 CL          5.6655   -0.4767   20.4830 Cl      1  UNL1       -0.0820
     22 C          -1.8755    3.8709   25.2789 C.ar    1  UNL1        0.0000
     23 C          -3.3338    3.5860   25.4841 C.ar    1  UNL1        0.0000
     24 C          -4.1232    4.3905   26.4738 C.ar    1  UNL1        0.0000
     25 C          -3.4542    5.4800   27.2584 C.ar    1  UNL1        0.0000
     26 C          -1.9959    5.7650   27.0532 C.ar    1  UNL1        0.0000
     27 C          -1.2065    4.9604   26.0635 C.ar    1  UNL1        0.0000
@<TRIPOS>BOND
     1     1     2    2
     2     2     3    1
     3     3     4    2
     4     4     5   ar
     5     5     6   ar
     6     6    22    1
     7    22    23   ar
     8    23    24   ar
     9    24    25   ar
    10    25    26   ar
    11    26    27   ar
    12     6     7   ar
    13     7     8   ar
    14     8     9   ar
    15     9    10    2
    16    10    11    1
    17    11    12    2
    18    12    15    1
    19    15    16   ar
    20    16    17   ar
    21    17    18   ar
    22    18    19   ar
    23    19    20   ar
    24    20    21    1
    25    12    13    1
    26    13    14    2
    27    14     2    1
    28     9     4   ar
    29    14    10    1
    30    27    22   ar
    31    20    15   ar
@<TRIPOS>MOLECULE
*****
 27 31 0 0 0
SMALL
GASTEIGER

@<TRIPOS>ATOM
      1 O           6.5687   -0.4904   27.3716 O.2     1  UNL1       -0.2638
      2 C           6.1143   -1.2214   26.1431 C.2     1  UNL1        0.3160
      3 N           5.2866   -0.5132   25.1120 N.am    1  UNL1       -0.1720
      4 C           4.8321   -1.2442   23.8835 C.ar    1  UNL1        0.0775
      5 C           4.0044   -0.5360   22.8524 C.ar    1  UNL1        0.0167
      6 C           3.5500   -1.2670   21.6240 C.ar    1  UNL1        0.0013
      7 C           3.9234   -2.7063   21.4267 C.ar    1  UNL1        0.0002
      8 C           4.7512   -3.4146   22.4577 C.ar    1  UNL1        0.0051
      9 C           5.2055   -2.6835   23.6861 C.ar    1  UNL1        0.0623
     10 C           6.0334   -3.3918   24.7173 C.2     1  UNL1        0.2419
     11 N           6.5525   -4.7969   24.7954 N.2     1  UNL1       -0.0302
     12 C           7.3277   -4.9343   26.0722 C.2     1  UNL1        0.3765
     13 N           7.2877   -3.6140   26.7831 N.2     1  UNL1       -0.0256
     14 C           6.4877   -2.6607   25.9457 C.2     1  UNL1        0.2907
     15 C           8.0212   -6.1742   26.5536 C.ar    1  UNL1        0.0989
     16 C           8.8409   -6.9929   25.6008 C.ar    1  UNL1        0.0085
     17 C           9.5344   -8.2328   26.0822 C.ar    1  UNL1        0.0003
     18 C           9.4081   -8.6540   27.5163 C.ar    1  UNL1        0.0009
     19 C           8.5885   -7.8353   28.4690 C.ar    1  UNL1        0.0116
     20 C           7.8950   -6.5954   27.9877 C.ar    1  UNL1        0.0651
     21 CL          7.0753   -5.7766   28.9404 Cl      1  UNL1       -0.0820
     22 C           2.7222   -0.5588   20.5929 C.ar    1  UNL1        0.0000
     23 C           1.3144   -0.1510   20.9121 C.ar    1  UNL1        0.0000
     24 C           0.4866    0.5572   19.8811 C.ar    1  UNL1        0.0000
     25 C           1.0666    0.8577   18.5307 C.ar    1  UNL1        0.0000
     26 C           2.4744    0.4499   18.2114 C.ar    1  UNL1        0.0000
     27 C           3.3022   -0.2583   19.2426 C.ar    1  UNL1        0.0000
@<TRIPOS>BOND
     1     1     2    2
     2     2     3    1
     3     3     4    2
     4     4     5   ar
     5     5     6   ar
     6     6    22    1
     7    22    23   ar
     8    23    24   ar
     9    24    25   ar
    10    25    26   ar
    11    26    27   ar
    12     6     7   ar
    13     7     8   ar
    14     8     9   ar
    15     9    10    2
    16    10    11    1
    17    11    12    2
    18    12    15    1
    19    15    16   ar
    20    16    17   ar
    21    17    18   ar
    22    18    19   ar
    23    19    20   ar
    24    20    21    1
    25    12    13    1
    26    13    14    2
    27    14     2    1
    28     9     4   ar
    29    14    10    1
    30    27    22   ar
    31    20    15   ar
@<TRIPOS>MOLECULE
*****
 27 31 0 0 0
SMALL
GASTEIGER

@<TRIPOS>ATOM
      1 O           8.4725   -6.3834   21.9525 O.2     1  UNL1       -0.2638
      2 C           7.8066   -5.3900   22.8579 C.2     1  UNL1        0.3160
      3 N           7.8690   -5.5715   24.3455 N.am    1  UNL1       -0.1720
      4 C           7.2031   -4.5781   25.2510 C.ar    1  UNL1        0.0775
      5 C           7.2655   -4.7596   26.7386 C.ar    1  UNL1        0.0167
      6 C           6.5997   -3.7662   27.6439 C.ar    1  UNL1        0.0013
      7 C           5.8713   -2.5913   27.0616 C.ar    1  UNL1        0.0002
      8 C           5.8089   -2.4097   25.5740 C.ar    1  UNL1        0.0051
      9 C           6.4748   -3.4031   24.6687 C.ar    1  UNL1        0.0623
     10 C           6.4124   -3.2216   23.1809 C.2     1  UNL1        0.2419
     11 N           5.7725   -2.1698   22.3242 N.2     1  UNL1       -0.0302
     12 C           6.0428   -2.5132   20.8892 C.2     1  UNL1        0.3765
     13 N           6.8499   -3.7772   20.8592 N.2     1  UNL1       -0.0256
     14 C           7.0783   -4.2150   22.2756 C.2     1  UNL1        0.2907
     15 C           5.5863   -1.7300   19.6941 C.ar    1  UNL1        0.0989
     16 C           6.3495   -0.5147   19.2576 C.ar    1  UNL1        0.0085
     17 C           5.8930    0.2684   18.0625 C.ar    1  UNL1        0.0003
     18 C           4.6732   -0.1637   17.3040 C.ar    1  UNL1        0.0009
     19 C           3.9099   -1.3790   17.7405 C.ar    1  UNL1        0.0116
     20 C           4.3665   -2.1621   18.9356 C.ar    1  UNL1        0.0651
     21 CL          3.6033   -3.3774   19.3722 Cl      1  UNL1       -0.0820
     22 C           6.6621   -3.9477   29.1317 C.ar    1  UNL1        0.0000
     23 C           6.8961   -5.3111   29.7117 C.ar    1  UNL1        0.0000
     24 C           6.9585   -5.4926   31.1993 C.ar    1  UNL1        0.0000
     25 C           6.7868   -4.3108   32.1070 C.ar    1  UNL1        0.0000
     26 C           6.5528   -2.9474   31.5270 C.ar    1  UNL1        0.0000
     27 C           6.4904   -2.7659   30.0392 C.ar    1  UNL1        0.0000
@<TRIPOS>BOND
     1     1     2    2
     2     2     3    1
     3     3     4    2
     4     4     5   ar
     5     5     6   ar
     6     6    22    1
     7    22    23   ar
     8    23    24   ar
     9    24    25   ar
    10    25    26   ar
    11    26    27   ar
    12     6     7   ar
    13     7     8   ar
    14     8     9   ar
    15     9    10    2
    16    10    11    1
    17    11    12    2
    18    12    15    1
    19    15    16   ar
    20    16    17   ar
    21    17    18   ar
    22    18    19   ar
    23    19    20   ar
    24    20    21    1
    25    12    13    1
    26    13    14    2
    27    14     2    1
    28     9     4   ar
    29    14    10    1
    30    27    22   ar
    31    20    15   ar
