@<TRIPOS>MOLECULE
*****
 23 25 0 0 0
SMALL
GASTEIGER

@<TRIPOS>ATOM
      1 N           0.1609  -18.2626   19.7188 N.pl3   1  UNL1       -0.3375
      2 C          -1.2595  -18.5349   20.1164 C.ar    1  UNL1        0.1567
      3 N          -1.7315  -18.9347   21.4829 N.ar    1  UNL1       -0.2245
      4 C          -3.2211  -19.1021   21.4283 C.ar    1  UNL1        0.0892
      5 C          -4.2269  -19.4861   22.4728 C.ar    1  UNL1        0.0198
      6 C          -5.6814  -19.5738   22.1169 C.ar    1  UNL1        0.0061
      7 C          -6.1301  -19.2775   20.7166 C.ar    1  UNL1        0.0540
      8 C          -5.1243  -18.8935   19.6721 C.ar    1  UNL1        0.0126
      9 C          -3.6698  -18.8058   20.0280 C.ar    1  UNL1        0.0498
     10 S          -2.4575  -18.4553   19.2172 S.2     1  UNL1       -0.0520
     11 H           0.8822  -18.3416   20.3843 H       1  UNL1        0.1442
     12 H           0.3720  -18.0048   18.7924 H       1  UNL1        0.1442
     13 C          -7.5847  -19.3653   20.3608 C.2     1  UNL1        0.2461
     14 O          -8.0155  -19.2402   18.9294 O.2     1  UNL1       -0.2701
     15 N          -8.6084  -19.5780   21.4362 N.am    1  UNL1       -0.2969
     16 H          -8.3256  -19.6601   22.3757 H       1  UNL1        0.1501
     17 C         -10.0630  -19.6657   21.0804 C.3     1  UNL1        0.1166
     18 C         -11.0930  -19.0432   21.9757 C.ar    1  UNL1       -0.0026
     19 C         -12.1594  -18.1635   21.3936 C.ar    1  UNL1       -0.0026
     20 C         -13.1894  -17.5409   22.2889 C.ar    1  UNL1       -0.0003
     21 C         -13.1530  -17.7980   23.7663 C.ar    1  UNL1       -0.0000
     22 C         -12.0865  -18.6778   24.3483 C.ar    1  UNL1       -0.0003
     23 C         -11.0565  -19.3003   23.4530 C.ar    1  UNL1       -0.0026
@<TRIPOS>BOND
     1     1     2    1
     2     2     3   ar
     3     3     4   ar
     4     4     5   ar
     5     5     6   ar
     6     6     7   ar
     7     7    13    1
     8    13    14    2
     9    13    15   am
    10    15    17    1
    11    17    18    1
    12    18    19   ar
    13    19    20   ar
    14    20    21   ar
    15    21    22   ar
    16    22    23   ar
    17     7     8   ar
    18     8     9   ar
    19     9    10   ar
    20    10     2   ar
    21     9     4   ar
    22    23    18   ar
    23     1    11    1
    24     1    12    1
    25    15    16    1
@<TRIPOS>MOLECULE
*****
 23 25 0 0 0
SMALL
GASTEIGER

@<TRIPOS>ATOM
      1 N           0.1305  -17.7313   20.4909 N.pl3   1  UNL1       -0.3375
      2 C          -1.2843  -18.1874   20.6919 C.ar    1  UNL1        0.1567
      3 N          -1.9732  -19.2837   19.9347 N.ar    1  UNL1       -0.2245
      4 C          -3.3733  -19.4011   20.4602 C.ar    1  UNL1        0.0892
      5 C          -4.5103  -20.3080   20.0932 C.ar    1  UNL1        0.0198
      6 C          -5.8237  -20.1910   20.8083 C.ar    1  UNL1        0.0061
      7 C          -6.0000  -19.1672   21.8903 C.ar    1  UNL1        0.0540
      8 C          -4.8629  -18.2604   22.2573 C.ar    1  UNL1        0.0126
      9 C          -3.5496  -18.3773   21.5422 C.ar    1  UNL1        0.0498
     10 S          -2.2585  -17.6272   21.6854 S.2     1  UNL1       -0.0520
     11 H           0.6950  -18.1636   19.8099 H       1  UNL1        0.1442
     12 H           0.4946  -16.9997   21.0400 H       1  UNL1        0.1442
     13 C          -7.3134  -19.0503   22.6054 C.2     1  UNL1        0.2461
     14 O          -7.7775  -17.7154   23.1080 O.2     1  UNL1       -0.2701
     15 N          -8.1627  -20.2683   22.8179 N.am    1  UNL1       -0.2969
     16 H          -7.8581  -21.1445   22.4881 H       1  UNL1        0.1501
     17 C          -9.4761  -20.1514   23.5330 C.3     1  UNL1        0.1166
     18 C         -10.5907  -19.3504   22.9281 C.ar    1  UNL1       -0.0026
     19 C         -10.7131  -19.2423   21.4370 C.ar    1  UNL1       -0.0026
     20 C         -11.8277  -18.4412   20.8321 C.ar    1  UNL1       -0.0003
     21 C         -12.8200  -17.7483   21.7183 C.ar    1  UNL1       -0.0000
     22 C         -12.6976  -17.8564   23.2094 C.ar    1  UNL1       -0.0003
     23 C         -11.5829  -18.6575   23.8143 C.ar    1  UNL1       -0.0026
@<TRIPOS>BOND
     1     1     2    1
     2     2     3   ar
     3     3     4   ar
     4     4     5   ar
     5     5     6   ar
     6     6     7   ar
     7     7    13    1
     8    13    14    2
     9    13    15   am
    10    15    17    1
    11    17    18    1
    12    18    19   ar
    13    19    20   ar
    14    20    21   ar
    15    21    22   ar
    16    22    23   ar
    17     7     8   ar
    18     8     9   ar
    19     9    10   ar
    20    10     2   ar
    21     9     4   ar
    22    23    18   ar
    23     1    11    1
    24     1    12    1
    25    15    16    1
@<TRIPOS>MOLECULE
*****
 23 25 0 0 0
SMALL
GASTEIGER

@<TRIPOS>ATOM
      1 N          -0.2936  -18.1795   18.8840 N.pl3   1  UNL1       -0.3375
      2 C          -1.4595  -18.1028   19.8247 C.ar    1  UNL1        0.1567
      3 N          -1.4538  -17.4736   21.1864 N.ar    1  UNL1       -0.2245
      4 C          -2.8265  -17.6238   21.7721 C.ar    1  UNL1        0.0892
      5 C          -3.4091  -17.1964   23.0866 C.ar    1  UNL1        0.0198
      6 C          -4.8457  -17.4909   23.4014 C.ar    1  UNL1        0.0061
      7 C          -5.6999  -18.2128   22.4018 C.ar    1  UNL1        0.0540
      8 C          -5.1173  -18.6402   21.0873 C.ar    1  UNL1        0.0126
      9 C          -3.6806  -18.3457   20.7725 C.ar    1  UNL1        0.0498
     10 S          -2.8358  -18.6417   19.5689 S.2     1  UNL1       -0.0520
     11 H           0.5744  -17.7943   19.1435 H       1  UNL1        0.1442
     12 H          -0.3965  -18.6150   18.0071 H       1  UNL1        0.1442
     13 C          -7.1366  -18.5073   22.7167 C.2     1  UNL1        0.2461
     14 O          -7.9494  -17.5217   23.5028 O.2     1  UNL1       -0.2701
     15 N          -7.7605  -19.7873   22.2454 N.am    1  UNL1       -0.2969
     16 H          -7.2271  -20.4342   21.7294 H       1  UNL1        0.1501
     17 C          -9.1973  -20.0819   22.5603 C.3     1  UNL1        0.1166
     18 C         -10.2793  -19.1865   22.0336 C.ar    1  UNL1       -0.0026
     19 C         -11.4348  -18.8093   22.9125 C.ar    1  UNL1       -0.0026
     20 C         -12.5168  -17.9139   22.3858 C.ar    1  UNL1       -0.0003
     21 C         -12.4434  -17.3957   20.9800 C.ar    1  UNL1       -0.0000
     22 C         -11.2879  -17.7729   20.1010 C.ar    1  UNL1       -0.0003
     23 C         -10.2058  -18.6683   20.6279 C.ar    1  UNL1       -0.0026
@<TRIPOS>BOND
     1     1     2    1
     2     2     3   ar
     3     3     4   ar
     4     4     5   ar
     5     5     6   ar
     6     6     7   ar
     7     7    13    1
     8    13    14    2
     9    13    15   am
    10    15    17    1
    11    17    18    1
    12    18    19   ar
    13    19    20   ar
    14    20    21   ar
    15    21    22   ar
    16    22    23   ar
    17     7     8   ar
    18     8     9   ar
    19     9    10   ar
    20    10     2   ar
    21     9     4   ar
    22    23    18   ar
    23     1    11    1
    24     1    12    1
    25    15    16    1
@<TRIPOS>MOLECULE
*****
 23 25 0 0 0
SMALL
GASTEIGER

@<TRIPOS>ATOM
      1 N         -10.3419   -0.8193   17.4657 N.pl3   1  UNL1       -0.3375
      2 C         -10.8155   -2.2297   17.6567 C.ar    1  UNL1        0.1567
      3 N         -10.0900   -3.3100   18.4026 N.ar    1  UNL1       -0.2245
      4 C         -10.9239   -4.5554   18.3423 C.ar    1  UNL1        0.0892
      5 C         -10.7135   -5.9321   18.8993 C.ar    1  UNL1        0.0198
      6 C         -11.7442   -6.9982   18.6732 C.ar    1  UNL1        0.0061
      7 C         -12.9852   -6.6876   17.8899 C.ar    1  UNL1        0.0540
      8 C         -13.1955   -5.3108   17.3329 C.ar    1  UNL1        0.0126
      9 C         -12.1649   -4.2448   17.5591 C.ar    1  UNL1        0.0498
     10 S         -12.0979   -2.8074   17.1354 S.2     1  UNL1       -0.0520
     11 H          -9.4811   -0.5330   17.8482 H       1  UNL1        0.1442
     12 H         -10.8919   -0.1799   16.9578 H       1  UNL1        0.1442
     13 C         -14.0158   -7.7537   17.6638 C.2     1  UNL1        0.2461
     14 O         -14.8100   -7.7713   16.3914 O.2     1  UNL1       -0.2701
     15 N         -14.2523   -8.8023   18.7100 N.am    1  UNL1       -0.2969
     16 H         -13.7311   -8.7907   19.5451 H       1  UNL1        0.1501
     17 C         -15.2830   -9.8684   18.4838 C.3     1  UNL1        0.1166
     18 C         -16.7218   -9.6028   18.8141 C.ar    1  UNL1       -0.0026
     19 C         -17.0742   -8.6766   19.9401 C.ar    1  UNL1       -0.0026
     20 C         -18.5131   -8.4109   20.2704 C.ar    1  UNL1       -0.0003
     21 C         -19.5996   -9.0714   19.4746 C.ar    1  UNL1       -0.0000
     22 C         -19.2472   -9.9976   18.3485 C.ar    1  UNL1       -0.0003
     23 C         -17.8083  -10.2633   18.0183 C.ar    1  UNL1       -0.0026
@<TRIPOS>BOND
     1     1     2    1
     2     2     3   ar
     3     3     4   ar
     4     4     5   ar
     5     5     6   ar
     6     6     7   ar
     7     7    13    1
     8    13    14    2
     9    13    15   am
    10    15    17    1
    11    17    18    1
    12    18    19   ar
    13    19    20   ar
    14    20    21   ar
    15    21    22   ar
    16    22    23   ar
    17     7     8   ar
    18     8     9   ar
    19     9    10   ar
    20    10     2   ar
    21     9     4   ar
    22    23    18   ar
    23     1    11    1
    24     1    12    1
    25    15    16    1
@<TRIPOS>MOLECULE
*****
 23 25 0 0 0
SMALL
GASTEIGER

@<TRIPOS>ATOM
      1 N         -10.3211   -0.5555   17.3905 N.pl3   1  UNL1       -0.3375
      2 C         -11.1424   -1.7063   17.8915 C.ar    1  UNL1        0.1567
      3 N         -11.8829   -1.7595   19.1950 N.ar    1  UNL1       -0.2245
      4 C         -12.5656   -3.0920   19.2862 C.ar    1  UNL1        0.0892
      5 C         -13.4362   -3.7034   20.3436 C.ar    1  UNL1        0.0198
      6 C         -13.9883   -5.0851   20.1540 C.ar    1  UNL1        0.0061
      7 C         -13.6698   -5.8555   18.9070 C.ar    1  UNL1        0.0540
      8 C         -12.7993   -5.2440   17.8495 C.ar    1  UNL1        0.0126
      9 C         -12.2472   -3.8623   18.0391 C.ar    1  UNL1        0.0498
     10 S         -11.3676   -3.0059   17.1772 S.2     1  UNL1       -0.0520
     11 H         -10.2325    0.2600   17.9349 H       1  UNL1        0.1442
     12 H          -9.8705   -0.6157   16.5172 H       1  UNL1        0.1442
     13 C         -14.2219   -7.2373   18.7174 C.2     1  UNL1        0.2461
     14 O         -13.6193   -8.1516   17.6923 O.2     1  UNL1       -0.2701
     15 N         -15.3766   -7.7047   19.5529 N.am    1  UNL1       -0.2969
     16 H         -15.7722   -7.1045   20.2257 H       1  UNL1        0.1501
     17 C         -15.9288   -9.0865   19.3633 C.3     1  UNL1        0.1166
     18 C         -17.4044   -9.2863   19.1828 C.ar    1  UNL1       -0.0026
     19 C         -17.9118  -10.1901   18.0985 C.ar    1  UNL1       -0.0026
     20 C         -19.3874  -10.3899   17.9180 C.ar    1  UNL1       -0.0003
     21 C         -20.3557   -9.6858   18.8218 C.ar    1  UNL1       -0.0000
     22 C         -19.8483   -8.7820   19.9061 C.ar    1  UNL1       -0.0003
     23 C         -18.3726   -8.5822   20.0866 C.ar    1  UNL1       -0.0026
@<TRIPOS>BOND
     1     1     2    1
     2     2     3   ar
     3     3     4   ar
     4     4     5   ar
     5     5     6   ar
     6     6     7   ar
     7     7    13    1
     8    13    14    2
     9    13    15   am
    10    15    17    1
    11    17    18    1
    12    18    19   ar
    13    19    20   ar
    14    20    21   ar
    15    21    22   ar
    16    22    23   ar
    17     7     8   ar
    18     8     9   ar
    19     9    10   ar
    20    10     2   ar
    21     9     4   ar
    22    23    18   ar
    23     1    11    1
    24     1    12    1
    25    15    16    1
@<TRIPOS>MOLECULE
*****
 23 25 0 0 0
SMALL
GASTEIGER

@<TRIPOS>ATOM
      1 N          -9.6305   -8.1632   18.9881 N.pl3   1  UNL1       -0.3375
      2 C         -10.3393   -6.8419   18.9464 C.ar    1  UNL1        0.1567
      3 N          -9.6865   -5.4923   18.8968 N.ar    1  UNL1       -0.2245
      4 C         -10.7691   -4.4545   18.8667 C.ar    1  UNL1        0.0892
      5 C         -10.7220   -2.9562   18.8150 C.ar    1  UNL1        0.0198
      6 C         -11.9968   -2.1660   18.7944 C.ar    1  UNL1        0.0061
      7 C         -13.3188   -2.8742   18.8254 C.ar    1  UNL1        0.0540
      8 C         -13.3659   -4.3725   18.8771 C.ar    1  UNL1        0.0126
      9 C         -12.0911   -5.1627   18.8977 C.ar    1  UNL1        0.0498
     10 S         -11.8254   -6.6382   18.9470 S.2     1  UNL1       -0.0520
     11 H          -8.6465   -8.1943   18.9842 H       1  UNL1        0.1442
     12 H         -10.1493   -8.9994   19.0195 H       1  UNL1        0.1442
     13 C         -14.5936   -2.0840   18.8048 C.2     1  UNL1        0.2461
     14 O         -15.2380   -1.7341   17.4963 O.2     1  UNL1       -0.2701
     15 N         -15.2240   -1.6437   20.0927 N.am    1  UNL1       -0.2969
     16 H         -14.8010   -1.8733   20.9516 H       1  UNL1        0.1501
     17 C         -16.4988   -0.8534   20.0721 C.3     1  UNL1        0.1166
     18 C         -16.4620    0.6345   20.2578 C.ar    1  UNL1       -0.0026
     19 C         -15.6137    1.4821   19.3567 C.ar    1  UNL1       -0.0026
     20 C         -15.5768    2.9700   19.5424 C.ar    1  UNL1       -0.0003
     21 C         -16.3883    3.6106   20.6293 C.ar    1  UNL1       -0.0000
     22 C         -17.2366    2.7630   21.5305 C.ar    1  UNL1       -0.0003
     23 C         -17.2734    1.2750   21.3447 C.ar    1  UNL1       -0.0026
@<TRIPOS>BOND
     1     1     2    1
     2     2     3   ar
     3     3     4   ar
     4     4     5   ar
     5     5     6   ar
     6     6     7   ar
     7     7    13    1
     8    13    14    2
     9    13    15   am
    10    15    17    1
    11    17    18    1
    12    18    19   ar
    13    19    20   ar
    14    20    21   ar
    15    21    22   ar
    16    22    23   ar
    17     7     8   ar
    18     8     9   ar
    19     9    10   ar
    20    10     2   ar
    21     9     4   ar
    22    23    18   ar
    23     1    11    1
    24     1    12    1
    25    15    16    1
@<TRIPOS>MOLECULE
*****
 23 25 0 0 0
SMALL
GASTEIGER

@<TRIPOS>ATOM
      1 N           6.9966   -5.5677   32.1239 N.pl3   1  UNL1       -0.3375
      2 C           6.9733   -5.3315   30.6428 C.ar    1  UNL1        0.1567
      3 N           7.4036   -6.3068   29.5876 N.ar    1  UNL1       -0.2245
      4 C           7.2119   -5.6566   28.2495 C.ar    1  UNL1        0.0892
      5 C           7.4661   -6.1406   26.8527 C.ar    1  UNL1        0.0198
      6 C           7.1715   -5.2474   25.6842 C.ar    1  UNL1        0.0061
      7 C           6.6225   -3.8703   25.9125 C.ar    1  UNL1        0.0540
      8 C           6.3683   -3.3863   27.3093 C.ar    1  UNL1        0.0126
      9 C           6.6629   -4.2794   28.4778 C.ar    1  UNL1        0.0498
     10 S           6.5155   -4.0785   29.9569 S.2     1  UNL1       -0.0520
     11 H           7.3162   -6.4280   32.4802 H       1  UNL1        0.1442
     12 H           6.6922   -4.8624   32.7397 H       1  UNL1        0.1442
     13 C           6.3279   -2.9771   24.7439 C.2     1  UNL1        0.2461
     14 O           7.4507   -2.4535   23.8983 O.2     1  UNL1       -0.2701
     15 N           4.9105   -2.6076   24.4210 N.am    1  UNL1       -0.2969
     16 H           4.1735   -2.9513   24.9760 H       1  UNL1        0.1501
     17 C           4.6158   -1.7145   23.2524 C.3     1  UNL1        0.1166
     18 C           4.2307   -2.3108   21.9310 C.ar    1  UNL1       -0.0026
     19 C           4.6034   -3.7280   21.6106 C.ar    1  UNL1       -0.0026
     20 C           4.2183   -4.3243   20.2892 C.ar    1  UNL1       -0.0003
     21 C           3.4606   -3.5034   19.2882 C.ar    1  UNL1       -0.0000
     22 C           3.0879   -2.0862   19.6086 C.ar    1  UNL1       -0.0003
     23 C           3.4730   -1.4899   20.9301 C.ar    1  UNL1       -0.0026
@<TRIPOS>BOND
     1     1     2    1
     2     2     3   ar
     3     3     4   ar
     4     4     5   ar
     5     5     6   ar
     6     6     7   ar
     7     7    13    1
     8    13    14    2
     9    13    15   am
    10    15    17    1
    11    17    18    1
    12    18    19   ar
    13    19    20   ar
    14    20    21   ar
    15    21    22   ar
    16    22    23   ar
    17     7     8   ar
    18     8     9   ar
    19     9    10   ar
    20    10     2   ar
    21     9     4   ar
    22    23    18   ar
    23     1    11    1
    24     1    12    1
    25    15    16    1
@<TRIPOS>MOLECULE
*****
 23 25 0 0 0
SMALL
GASTEIGER

@<TRIPOS>ATOM
      1 N          -0.2084  -14.0371   29.2318 N.pl3   1  UNL1       -0.3375
      2 C           1.1840  -13.7628   28.7460 C.ar    1  UNL1        0.1567
      3 N           1.8209  -14.3465   27.5198 N.ar    1  UNL1       -0.2245
      4 C           3.2145  -13.8012   27.4171 C.ar    1  UNL1        0.0892
      5 C           4.3082  -14.0240   26.4150 C.ar    1  UNL1        0.0198
      6 C           5.6261  -13.3262   26.5757 C.ar    1  UNL1        0.0061
      7 C           5.8505  -12.4055   27.7384 C.ar    1  UNL1        0.0540
      8 C           4.7568  -12.1826   28.7405 C.ar    1  UNL1        0.0126
      9 C           3.4388  -12.8805   28.5798 C.ar    1  UNL1        0.0498
     10 S           2.1839  -12.8568   29.4011 S.2     1  UNL1       -0.0520
     11 H          -0.7929  -14.6504   28.7304 H       1  UNL1        0.1442
     12 H          -0.5379  -13.6038   30.0522 H       1  UNL1        0.1442
     13 C           7.1686  -11.7076   27.8990 C.2     1  UNL1        0.2461
     14 O           8.3864  -12.4874   28.2975 O.2     1  UNL1       -0.2701
     15 N           7.2688  -10.2300   27.6612 N.am    1  UNL1       -0.2969
     16 H           6.4695   -9.7182   27.3997 H       1  UNL1        0.1501
     17 C           8.5868   -9.5321   27.8219 C.3     1  UNL1        0.1166
     18 C           8.7950   -8.1744   27.2192 C.ar    1  UNL1       -0.0026
     19 C           9.0991   -7.0005   28.1021 C.ar    1  UNL1       -0.0026
     20 C           9.3073   -5.6428   27.4994 C.ar    1  UNL1       -0.0003
     21 C           9.2113   -5.4589   26.0138 C.ar    1  UNL1       -0.0000
     22 C           8.9071   -6.6328   25.1309 C.ar    1  UNL1       -0.0003
     23 C           8.6990   -7.9906   25.7336 C.ar    1  UNL1       -0.0026
@<TRIPOS>BOND
     1     1     2    1
     2     2     3   ar
     3     3     4   ar
     4     4     5   ar
     5     5     6   ar
     6     6     7   ar
     7     7    13    1
     8    13    14    2
     9    13    15   am
    10    15    17    1
    11    17    18    1
    12    18    19   ar
    13    19    20   ar
    14    20    21   ar
    15    21    22   ar
    16    22    23   ar
    17     7     8   ar
    18     8     9   ar
    19     9    10   ar
    20    10     2   ar
    21     9     4   ar
    22    23    18   ar
    23     1    11    1
    24     1    12    1
    25    15    16    1
@<TRIPOS>MOLECULE
*****
 23 25 0 0 0
SMALL
GASTEIGER

@<TRIPOS>ATOM
      1 N           6.6465   -5.5225   31.0281 N.pl3   1  UNL1       -0.3375
      2 C           7.0427   -5.7588   29.6008 C.ar    1  UNL1        0.1567
      3 N           7.9498   -6.8461   29.1060 N.ar    1  UNL1       -0.2245
      4 C           8.0691   -6.7086   27.6171 C.ar    1  UNL1        0.0892
      5 C           8.8289   -7.4994   26.5938 C.ar    1  UNL1        0.0198
      6 C           8.7554   -7.1178   25.1450 C.ar    1  UNL1        0.0061
      7 C           7.9220   -5.9454   24.7196 C.ar    1  UNL1        0.0540
      8 C           7.1622   -5.1546   25.7429 C.ar    1  UNL1        0.0126
      9 C           7.2358   -5.5362   27.1917 C.ar    1  UNL1        0.0498
     10 S           6.6014   -4.9492   28.4177 S.2     1  UNL1       -0.0520
     11 H           6.9901   -6.1113   31.7383 H       1  UNL1        0.1442
     12 H           6.0428   -4.7785   31.2547 H       1  UNL1        0.1442
     13 C           7.8485   -5.5638   23.2708 C.2     1  UNL1        0.2461
     14 O           8.4316   -6.4689   22.2263 O.2     1  UNL1       -0.2701
     15 N           7.1919   -4.2773   22.8664 N.am    1  UNL1       -0.2969
     16 H           6.8091   -3.6833   23.5519 H       1  UNL1        0.1501
     17 C           7.1184   -3.8957   21.4176 C.3     1  UNL1        0.1166
     18 C           5.8092   -3.4749   20.8183 C.ar    1  UNL1       -0.0026
     19 C           5.0698   -2.2981   21.3825 C.ar    1  UNL1       -0.0026
     20 C           3.7607   -1.8774   20.7832 C.ar    1  UNL1       -0.0003
     21 C           3.1910   -2.6335   19.6197 C.ar    1  UNL1       -0.0000
     22 C           3.9304   -3.8103   19.0555 C.ar    1  UNL1       -0.0003
     23 C           5.2396   -4.2310   19.6548 C.ar    1  UNL1       -0.0026
@<TRIPOS>BOND
     1     1     2    1
     2     2     3   ar
     3     3     4   ar
     4     4     5   ar
     5     5     6   ar
     6     6     7   ar
     7     7    13    1
     8    13    14    2
     9    13    15   am
    10    15    17    1
    11    17    18    1
    12    18    19   ar
    13    19    20   ar
    14    20    21   ar
    15    21    22   ar
    16    22    23   ar
    17     7     8   ar
    18     8     9   ar
    19     9    10   ar
    20    10     2   ar
    21     9     4   ar
    22    23    18   ar
    23     1    11    1
    24     1    12    1
    25    15    16    1
