@<TRIPOS>MOLECULE
*****
 38 40 0 0 0
SMALL
GASTEIGER

@<TRIPOS>ATOM
      1 C           6.4743   -3.3525   20.0992 C.ar    1  UNL1        0.1432
      2 C           5.7976   -2.1749   19.4625 C.ar    1  UNL1        0.0691
      3 C           4.4459   -2.3368   18.8327 C.ar    1  UNL1        0.1368
      4 N           3.7709   -3.6763   18.8395 N.ar    1  UNL1       -0.2088
      5 C           4.4476   -4.8540   19.4761 C.ar    1  UNL1        0.2012
      6 N           5.7993   -4.6921   20.1060 N.ar    1  UNL1       -0.2085
      7 N           6.9676   -4.3756   22.8758 N.am    1  UNL1       -0.2663
      8 C           8.0727   -3.7021   22.1174 C.2     1  UNL1        0.3126
      9 O           9.4244   -3.5402   22.7472 O.2     1  UNL1       -0.2519
     10 N           7.8260   -3.1906   20.7290 N.am    1  UNL1       -0.2261
     11 C           8.9310   -2.5171   19.9705 C.3     1  UNL1        0.1231
     12 H           6.0805   -4.4819   22.4625 H       1  UNL1        0.1565
     13 C           8.1811   -6.6987   25.8559 C.ar    1  UNL1        0.1535
     14 C           7.7076   -5.9103   27.0408 C.ar    1  UNL1        0.0756
     15 C           6.9874   -4.6103   26.8375 C.ar    1  UNL1        0.1535
     16 C           6.7408   -4.0987   25.4492 C.ar    1  UNL1        0.1060
     17 CL          6.0206   -2.7987   25.2458 Cl      1  UNL1       -0.0777
     18 C           7.2143   -4.8871   24.2642 C.ar    1  UNL1        0.0788
     19 C           7.9345   -6.1871   24.4676 C.ar    1  UNL1        0.1060
     20 CL          8.4080   -6.9756   23.2826 Cl      1  UNL1       -0.0777
     21 C           8.5945   -8.8465   27.2580 C.3     1  UNL1        0.2525
     22 O           8.9013   -7.9987   26.0592 O.3     1  UNL1       -0.4704
     23 O           6.5139   -3.8219   28.0225 O.3     1  UNL1       -0.4704
     24 C           6.7316   -4.3493   29.4097 C.3     1  UNL1        0.2525
     25 N           3.7692   -1.1593   18.1961 N.pl3   1  UNL1       -0.2978
     26 H           3.9924   -0.9036   17.2720 H       1  UNL1        0.1536
     27 C           2.7523   -0.3712   18.9676 C.ar    1  UNL1        0.0493
     28 C           2.6118   -0.5734   20.4472 C.ar    1  UNL1        0.0143
     29 C           1.5950    0.2146   21.2186 C.ar    1  UNL1       -0.0030
     30 C           0.7186    1.2047   20.5104 C.ar    1  UNL1       -0.0221
     31 C           0.8591    1.4068   19.0307 C.ar    1  UNL1       -0.0030
     32 C           1.8759    0.6189   18.2593 C.ar    1  UNL1        0.0143
     33 C          -0.2983    1.9927   21.2818 C.3     1  UNL1        0.0278
     34 C          -1.2526    2.8965   20.5590 C.3     1  UNL1        0.0220
     35 C          -2.3387    3.6006   21.3169 C.3     1  UNL1        0.0725
     36 N          -3.7696    3.4462   20.8942 N.3     1  UNL1       -0.2703
     37 C          -4.8200    3.1102   21.9110 C.3     1  UNL1        0.0897
     38 C          -4.1501    3.6277   19.4547 C.3     1  UNL1        0.0897
@<TRIPOS>BOND
     1    21    22    1
     2    22    13    1
     3    13    14   ar
     4    14    15   ar
     5    15    23    1
     6    23    24    1
     7    15    16   ar
     8    16    17    1
     9    16    18   ar
    10    18     7    1
    11     7     8   am
    12     8     9    2
    13     8    10   am
    14    10    11    1
    15    10     1    1
    16     1     2   ar
    17     2     3   ar
    18     3    25    1
    19    25    27    1
    20    27    28   ar
    21    28    29   ar
    22    29    30   ar
    23    30    33    1
    24    33    34    1
    25    34    35    1
    26    35    36    1
    27    36    37    1
    28    36    38    1
    29    30    31   ar
    30    31    32   ar
    31     3     4   ar
    32     4     5   ar
    33     5     6   ar
    34    18    19   ar
    35    19    20    1
    36    19    13   ar
    37     6     1   ar
    38    32    27   ar
    39     7    12    1
    40    25    26    1
@<TRIPOS>MOLECULE
*****
 38 40 0 0 0
SMALL
GASTEIGER

@<TRIPOS>ATOM
      1 C           6.4364   -3.3945   20.1029 C.ar    1  UNL1        0.1432
      2 C           5.7802   -2.2166   19.4457 C.ar    1  UNL1        0.0691
      3 C           4.4181   -2.3614   18.8344 C.ar    1  UNL1        0.1368
      4 N           3.7121   -3.6840   18.8803 N.ar    1  UNL1       -0.2088
      5 C           4.3683   -4.8620   19.5375 C.ar    1  UNL1        0.2012
      6 N           5.7304   -4.7172   20.1488 N.ar    1  UNL1       -0.2085
      7 N           6.9326   -4.3480   22.9037 N.am    1  UNL1       -0.2663
      8 C           8.0466   -3.7265   22.1146 C.2     1  UNL1        0.3126
      9 O           9.4087   -3.5817   22.7259 O.2     1  UNL1       -0.2519
     10 N           7.7985   -3.2497   20.7142 N.am    1  UNL1       -0.2261
     11 C           8.9125   -2.6282   19.9251 C.3     1  UNL1        0.1231
     12 H           6.0386   -4.4430   22.5025 H       1  UNL1        0.1565
     13 C           6.9559   -4.4840   26.8700 C.ar    1  UNL1        0.1535
     14 C           7.6767   -5.7782   27.1050 C.ar    1  UNL1        0.0756
     15 C           8.1495   -6.5958   25.9396 C.ar    1  UNL1        0.1535
     16 C           7.9014   -6.1190   24.5392 C.ar    1  UNL1        0.1060
     17 CL          8.3742   -6.9366   23.3738 Cl      1  UNL1       -0.0777
     18 C           7.1806   -4.8248   24.3042 C.ar    1  UNL1        0.0788
     19 C           6.7079   -4.0072   25.4696 C.ar    1  UNL1        0.1060
     20 CL          5.9870   -2.7129   25.2345 Cl      1  UNL1       -0.0777
     21 C           7.3595   -2.5876   28.5994 C.3     1  UNL1        0.2525
     22 O           6.4832   -3.6664   28.0353 O.3     1  UNL1       -0.4704
     23 O           8.8703   -7.8901   26.1747 O.3     1  UNL1       -0.4704
     24 C           8.3933   -8.8313   27.2408 C.3     1  UNL1        0.2525
     25 N           3.7619   -1.1835   18.1771 N.pl3   1  UNL1       -0.2978
     26 H           3.9939   -0.9443   17.2507 H       1  UNL1        0.1536
     27 C           2.7523   -0.3699   18.9314 C.ar    1  UNL1        0.0493
     28 C           2.0520    0.7711   18.2549 C.ar    1  UNL1        0.0143
     29 C           1.0424    1.5846   19.0091 C.ar    1  UNL1       -0.0030
     30 C           0.7332    1.2572   20.4398 C.ar    1  UNL1       -0.0221
     31 C           1.4336    0.1163   21.1164 C.ar    1  UNL1       -0.0030
     32 C           2.4431   -0.6973   20.3622 C.ar    1  UNL1        0.0143
     33 C          -0.2764    2.0708   21.1941 C.3     1  UNL1        0.0278
     34 C          -1.3258    2.8417   20.4495 C.3     1  UNL1        0.0220
     35 C          -2.3600    3.6227   21.2047 C.3     1  UNL1        0.0725
     36 N          -3.8150    3.4437   20.8870 N.3     1  UNL1       -0.2703
     37 C          -4.3136    3.6859   19.4931 C.3     1  UNL1        0.0897
     38 C          -4.7714    3.0226   21.9630 C.3     1  UNL1        0.0897
@<TRIPOS>BOND
     1    21    22    1
     2    22    13    1
     3    13    14   ar
     4    14    15   ar
     5    15    23    1
     6    23    24    1
     7    15    16   ar
     8    16    17    1
     9    16    18   ar
    10    18     7    1
    11     7     8   am
    12     8     9    2
    13     8    10   am
    14    10    11    1
    15    10     1    1
    16     1     2   ar
    17     2     3   ar
    18     3    25    1
    19    25    27    1
    20    27    28   ar
    21    28    29   ar
    22    29    30   ar
    23    30    33    1
    24    33    34    1
    25    34    35    1
    26    35    36    1
    27    36    37    1
    28    36    38    1
    29    30    31   ar
    30    31    32   ar
    31     3     4   ar
    32     4     5   ar
    33     5     6   ar
    34    18    19   ar
    35    19    20    1
    36    19    13   ar
    37     6     1   ar
    38    32    27   ar
    39     7    12    1
    40    25    26    1
@<TRIPOS>MOLECULE
*****
 38 40 0 0 0
SMALL
GASTEIGER

@<TRIPOS>ATOM
      1 C           4.1523    0.1509   28.6698 C.ar    1  UNL1        0.1432
      2 C           4.5591   -0.4622   29.9770 C.ar    1  UNL1        0.0691
      3 C           3.5121   -0.9213   30.9480 C.ar    1  UNL1        0.1368
      4 N           2.0584   -0.7675   30.6120 N.ar    1  UNL1       -0.2088
      5 C           1.6516   -0.1544   29.3048 C.ar    1  UNL1        0.2012
      6 N           2.6985    0.3048   28.3337 N.ar    1  UNL1       -0.2085
      7 N           4.2583   -1.0241   25.9115 N.am    1  UNL1       -0.2663
      8 C           5.2523    0.0225   26.3195 C.2     1  UNL1        0.3126
      9 O           6.2993    0.4817   25.3484 O.2     1  UNL1       -0.2519
     10 N           5.1993    0.6101   27.6987 N.am    1  UNL1       -0.2261
     11 C           6.1932    1.6567   28.1067 C.3     1  UNL1        0.1231
     12 H           3.5712   -1.3255   26.5489 H       1  UNL1        0.1565
     13 C           3.4596   -1.6730   22.0786 C.ar    1  UNL1        0.1535
     14 C           4.4172   -2.7866   21.7741 C.ar    1  UNL1        0.0756
     15 C           5.3219   -3.3128   22.8487 C.ar    1  UNL1        0.1535
     16 C           5.2689   -2.7253   24.2278 C.ar    1  UNL1        0.1060
     17 CL          6.1735   -3.2515   25.3024 Cl      1  UNL1       -0.0777
     18 C           4.3113   -1.6117   24.5323 C.ar    1  UNL1        0.0788
     19 C           3.4067   -1.0855   23.4577 C.ar    1  UNL1        0.1060
     20 CL          2.4491    0.0282   23.7623 Cl      1  UNL1       -0.0777
     21 C           3.1386   -0.5115   19.7769 C.3     1  UNL1        0.2525
     22 O           2.5550   -1.1468   21.0040 O.3     1  UNL1       -0.4704
     23 O           6.2795   -4.4265   22.5441 O.3     1  UNL1       -0.4704
     24 C           7.6462   -4.1154   22.0100 C.3     1  UNL1        0.2525
     25 N           3.9188   -1.5344   32.2552 N.pl3   1  UNL1       -0.2978
     26 H           4.0461   -2.5082   32.3237 H       1  UNL1        0.1536
     27 C           4.1317   -0.6637   33.4580 C.ar    1  UNL1        0.0493
     28 C           3.5387    0.7134   33.5014 C.ar    1  UNL1        0.0143
     29 C           3.7515    1.5841   34.7041 C.ar    1  UNL1       -0.0030
     30 C           4.5575    1.0777   35.8634 C.ar    1  UNL1       -0.0221
     31 C           5.1505   -0.2994   35.8200 C.ar    1  UNL1       -0.0030
     32 C           4.9377   -1.1701   34.6173 C.ar    1  UNL1        0.0143
     33 C           4.7704    1.9484   37.0662 C.3     1  UNL1        0.0278
     34 C           3.9685    1.7152   38.3122 C.3     1  UNL1        0.0220
     35 C           2.5124    1.3688   38.2132 C.3     1  UNL1        0.0725
     36 N           1.4747    2.4428   38.3537 N.3     1  UNL1       -0.2703
     37 C           0.3516    2.2769   39.3341 C.3     1  UNL1        0.0897
     38 C           1.5601    3.6826   37.5138 C.3     1  UNL1        0.0897
@<TRIPOS>BOND
     1    21    22    1
     2    22    13    1
     3    13    14   ar
     4    14    15   ar
     5    15    23    1
     6    23    24    1
     7    15    16   ar
     8    16    17    1
     9    16    18   ar
    10    18     7    1
    11     7     8   am
    12     8     9    2
    13     8    10   am
    14    10    11    1
    15    10     1    1
    16     1     2   ar
    17     2     3   ar
    18     3    25    1
    19    25    27    1
    20    27    28   ar
    21    28    29   ar
    22    29    30   ar
    23    30    33    1
    24    33    34    1
    25    34    35    1
    26    35    36    1
    27    36    37    1
    28    36    38    1
    29    30    31   ar
    30    31    32   ar
    31     3     4   ar
    32     4     5   ar
    33     5     6   ar
    34    18    19   ar
    35    19    20    1
    36    19    13   ar
    37     6     1   ar
    38    32    27   ar
    39     7    12    1
    40    25    26    1
@<TRIPOS>MOLECULE
*****
 38 40 0 0 0
SMALL
GASTEIGER

@<TRIPOS>ATOM
      1 C           0.3514    2.4562   19.6299 C.ar    1  UNL1        0.1432
      2 C           1.3308    1.9239   18.6262 C.ar    1  UNL1        0.0691
      3 C           1.7580    0.4872   18.6841 C.ar    1  UNL1        0.1368
      4 N           1.2058   -0.4172   19.7458 N.ar    1  UNL1       -0.2088
      5 C           0.2264    0.1151   20.7496 C.ar    1  UNL1        0.2012
      6 N          -0.2008    1.5518   20.6917 N.ar    1  UNL1       -0.2085
      7 N          -2.5090    3.1929   20.1545 N.am    1  UNL1       -0.2663
      8 C          -1.5061    4.2612   19.8343 C.2     1  UNL1        0.3126
      9 O          -1.9333    5.6979   19.7764 O.2     1  UNL1       -0.2519
     10 N          -0.0758    3.8929   19.5720 N.am    1  UNL1       -0.2261
     11 C           0.9272    4.9613   19.2518 C.3     1  UNL1        0.1231
     12 H          -2.2286    2.2499   20.1925 H       1  UNL1        0.1565
     13 C          -6.3035    4.1746   19.5312 C.ar    1  UNL1        0.1535
     14 C          -6.7997    4.2978   20.9413 C.ar    1  UNL1        0.0756
     15 C          -5.8657    4.0527   22.0892 C.ar    1  UNL1        0.1535
     16 C          -4.4355    3.6844   21.8270 C.ar    1  UNL1        0.1060
     17 CL         -3.5016    3.4393   22.9749 Cl      1  UNL1       -0.0777
     18 C          -3.9393    3.5612   20.4168 C.ar    1  UNL1        0.0788
     19 C          -4.8733    3.8063   19.2690 C.ar    1  UNL1        0.1060
     20 CL         -4.3770    3.6831   17.8588 Cl      1  UNL1       -0.0777
     21 C          -8.1251    5.6289   18.3837 C.3     1  UNL1        0.2525
     22 O          -7.2374    4.4197   18.3833 O.3     1  UNL1       -0.4704
     23 O          -6.3620    4.1759   23.4994 O.3     1  UNL1       -0.4704
     24 C          -7.7760    4.6020   23.7623 C.3     1  UNL1        0.2525
     25 N           2.7373   -0.0451   17.6804 N.pl3   1  UNL1       -0.2978
     26 H           2.5240   -0.0134   16.7198 H       1  UNL1        0.1536
     27 C           4.0417   -0.6259   18.1402 C.ar    1  UNL1        0.0493
     28 C           4.9554    0.1811   19.0142 C.ar    1  UNL1        0.0143
     29 C           6.2597   -0.3995   19.4740 C.ar    1  UNL1       -0.0030
     30 C           6.6503   -1.7873   19.0599 C.ar    1  UNL1       -0.0221
     31 C           5.7366   -2.5943   18.1859 C.ar    1  UNL1       -0.0030
     32 C           4.4323   -2.0136   17.7261 C.ar    1  UNL1        0.0143
     33 C           7.9547   -2.3680   19.5197 C.3     1  UNL1        0.0278
     34 C           8.0686   -2.9628   20.8920 C.3     1  UNL1        0.0220
     35 C           7.2222   -4.1417   21.2711 C.3     1  UNL1        0.0725
     36 N           6.0310   -3.9539   22.1632 N.3     1  UNL1       -0.2703
     37 C           6.2106   -3.8933   23.6512 C.3     1  UNL1        0.0897
     38 C           4.6603   -3.8268   21.5673 C.3     1  UNL1        0.0897
@<TRIPOS>BOND
     1    21    22    1
     2    22    13    1
     3    13    14   ar
     4    14    15   ar
     5    15    23    1
     6    23    24    1
     7    15    16   ar
     8    16    17    1
     9    16    18   ar
    10    18     7    1
    11     7     8   am
    12     8     9    2
    13     8    10   am
    14    10    11    1
    15    10     1    1
    16     1     2   ar
    17     2     3   ar
    18     3    25    1
    19    25    27    1
    20    27    28   ar
    21    28    29   ar
    22    29    30   ar
    23    30    33    1
    24    33    34    1
    25    34    35    1
    26    35    36    1
    27    36    37    1
    28    36    38    1
    29    30    31   ar
    30    31    32   ar
    31     3     4   ar
    32     4     5   ar
    33     5     6   ar
    34    18    19   ar
    35    19    20    1
    36    19    13   ar
    37     6     1   ar
    38    32    27   ar
    39     7    12    1
    40    25    26    1
@<TRIPOS>MOLECULE
*****
 38 40 0 0 0
SMALL
GASTEIGER

@<TRIPOS>ATOM
      1 C           7.2439   -3.2729   28.1356 C.ar    1  UNL1        0.1432
      2 C           6.9662   -3.2126   29.6084 C.ar    1  UNL1        0.0691
      3 C           6.7586   -4.4790   30.3850 C.ar    1  UNL1        0.1368
      4 N           6.8287   -5.8058   29.6888 N.ar    1  UNL1       -0.2088
      5 C           7.1064   -5.8662   28.2159 C.ar    1  UNL1        0.2012
      6 N           7.3140   -4.5998   27.4393 N.ar    1  UNL1       -0.2085
      7 N           6.0076   -2.9588   25.4202 N.am    1  UNL1       -0.2663
      8 C           6.8333   -1.8495   26.0013 C.2     1  UNL1        0.3126
      9 O           7.0409   -0.5830   25.2247 O.2     1  UNL1       -0.2519
     10 N           7.4515   -2.0065   27.3590 N.am    1  UNL1       -0.2261
     11 C           8.2771   -0.8972   27.9400 C.3     1  UNL1        0.1231
     12 H           5.8714   -3.7899   25.9300 H       1  UNL1        0.1565
     13 C           5.2909   -3.4446   21.5472 C.ar    1  UNL1        0.1535
     14 C           4.1533   -2.4876   21.3472 C.ar    1  UNL1        0.0756
     15 C           3.6338   -1.6877   22.5049 C.ar    1  UNL1        0.1535
     16 C           4.2519   -1.8447   23.8626 C.ar    1  UNL1        0.1060
     17 CL          3.7323   -1.0448   25.0202 Cl      1  UNL1       -0.0777
     18 C           5.3895   -2.8017   24.0625 C.ar    1  UNL1        0.0788
     19 C           5.9090   -3.6016   22.9048 C.ar    1  UNL1        0.1060
     20 CL          7.0467   -4.5586   23.1049 Cl      1  UNL1       -0.0777
     21 C           5.1871   -4.0933   19.0336 C.3     1  UNL1        0.2525
     22 O           5.8104   -4.2445   20.3895 O.3     1  UNL1       -0.4704
     23 O           2.4961   -0.7307   22.3049 O.3     1  UNL1       -0.4704
     24 C           1.8948   -0.5549   20.9420 C.3     1  UNL1        0.2525
     25 N           6.4810   -4.4187   31.8578 N.pl3   1  UNL1       -0.2978
     26 H           6.4848   -5.2445   32.3937 H       1  UNL1        0.1536
     27 C           6.1974   -3.1000   32.5142 C.ar    1  UNL1        0.0493
     28 C           4.7926   -2.7395   32.8970 C.ar    1  UNL1        0.0143
     29 C           4.5090   -1.4209   33.5534 C.ar    1  UNL1       -0.0030
     30 C           5.6302   -0.4628   33.8269 C.ar    1  UNL1       -0.0221
     31 C           7.0350   -0.8233   33.4440 C.ar    1  UNL1       -0.0030
     32 C           7.3186   -2.1419   32.7877 C.ar    1  UNL1        0.0143
     33 C           5.3467    0.8559   34.4832 C.3     1  UNL1        0.0278
     34 C           4.2289    0.9743   35.4765 C.3     1  UNL1        0.0220
     35 C           4.3929    0.4184   36.8600 C.3     1  UNL1        0.0725
     36 N           3.9272    1.2096   38.0462 N.3     1  UNL1       -0.2703
     37 C           4.8539    2.1870   38.7065 C.3     1  UNL1        0.0897
     38 C           2.5348    1.0233   38.5722 C.3     1  UNL1        0.0897
@<TRIPOS>BOND
     1    21    22    1
     2    22    13    1
     3    13    14   ar
     4    14    15   ar
     5    15    23    1
     6    23    24    1
     7    15    16   ar
     8    16    17    1
     9    16    18   ar
    10    18     7    1
    11     7     8   am
    12     8     9    2
    13     8    10   am
    14    10    11    1
    15    10     1    1
    16     1     2   ar
    17     2     3   ar
    18     3    25    1
    19    25    27    1
    20    27    28   ar
    21    28    29   ar
    22    29    30   ar
    23    30    33    1
    24    33    34    1
    25    34    35    1
    26    35    36    1
    27    36    37    1
    28    36    38    1
    29    30    31   ar
    30    31    32   ar
    31     3     4   ar
    32     4     5   ar
    33     5     6   ar
    34    18    19   ar
    35    19    20    1
    36    19    13   ar
    37     6     1   ar
    38    32    27   ar
    39     7    12    1
    40    25    26    1
@<TRIPOS>MOLECULE
*****
 38 40 0 0 0
SMALL
GASTEIGER

@<TRIPOS>ATOM
      1 C           0.2944    2.4688   19.5826 C.ar    1  UNL1        0.1432
      2 C           1.3191    1.9291   18.6294 C.ar    1  UNL1        0.0691
      3 C           1.7575    0.4982   18.7306 C.ar    1  UNL1        0.1368
      4 N           1.1712   -0.3931   19.7849 N.ar    1  UNL1       -0.2088
      5 C           0.1464    0.1465   20.7382 C.ar    1  UNL1        0.2012
      6 N          -0.2920    1.5775   20.6371 N.ar    1  UNL1       -0.2085
      7 N          -2.5531    3.2101   20.1673 N.am    1  UNL1       -0.2663
      8 C          -1.5678    4.2704   19.7738 C.2     1  UNL1        0.3126
      9 O          -2.0062    5.7013   19.6727 O.2     1  UNL1       -0.2519
     10 N          -0.1439    3.8997   19.4815 N.am    1  UNL1       -0.2261
     11 C           0.8414    4.9600   19.0881 C.3     1  UNL1        0.1231
     12 H          -2.2654    2.2710   20.2336 H       1  UNL1        0.1565
     13 C          -5.8568    4.1152   22.1715 C.ar    1  UNL1        0.1535
     14 C          -6.8245    4.3221   21.0443 C.ar    1  UNL1        0.0756
     15 C          -6.3684    4.1583   19.6247 C.ar    1  UNL1        0.1535
     16 C          -4.9447    3.7877   19.3323 C.ar    1  UNL1        0.1060
     17 CL         -4.4886    3.6239   17.9128 Cl      1  UNL1       -0.0777
     18 C          -3.9770    3.5808   20.4596 C.ar    1  UNL1        0.0788
     19 C          -4.4330    3.7445   21.8792 C.ar    1  UNL1        0.1060
     20 CL         -3.4652    3.5376   23.0064 Cl      1  UNL1       -0.0777
     21 C          -7.7107    4.7390   23.8814 C.3     1  UNL1        0.2525
     22 O          -6.3128    4.2789   23.5911 O.3     1  UNL1       -0.4704
     23 O          -7.3362    4.3652   18.4974 O.3     1  UNL1       -0.4704
     24 C          -8.2880    5.5241   18.5293 C.3     1  UNL1        0.2525
     25 N           2.7822   -0.0415   17.7773 N.pl3   1  UNL1       -0.2978
     26 H           2.5835   -0.0857   16.8141 H       1  UNL1        0.1536
     27 C           4.1099   -0.5137   18.2916 C.ar    1  UNL1        0.0493
     28 C           4.6681    0.0566   19.5617 C.ar    1  UNL1        0.0143
     29 C           5.9956   -0.4156   20.0761 C.ar    1  UNL1       -0.0030
     30 C           6.7650   -1.4581   19.3203 C.ar    1  UNL1       -0.0221
     31 C           6.2068   -2.0284   18.0502 C.ar    1  UNL1       -0.0030
     32 C           4.8792   -1.5562   17.5359 C.ar    1  UNL1        0.0143
     33 C           8.0926   -1.9304   19.8346 C.3     1  UNL1        0.0278
     34 C           8.1537   -3.0196   20.8641 C.3     1  UNL1        0.0220
     35 C           7.1182   -4.1048   20.8702 C.3     1  UNL1        0.0725
     36 N           5.8677   -3.9437   21.6829 N.3     1  UNL1       -0.2703
     37 C           5.9529   -3.8345   23.1765 C.3     1  UNL1        0.0897
     38 C           4.5322   -3.8917   21.0020 C.3     1  UNL1        0.0897
@<TRIPOS>BOND
     1    21    22    1
     2    22    13    1
     3    13    14   ar
     4    14    15   ar
     5    15    23    1
     6    23    24    1
     7    15    16   ar
     8    16    17    1
     9    16    18   ar
    10    18     7    1
    11     7     8   am
    12     8     9    2
    13     8    10   am
    14    10    11    1
    15    10     1    1
    16     1     2   ar
    17     2     3   ar
    18     3    25    1
    19    25    27    1
    20    27    28   ar
    21    28    29   ar
    22    29    30   ar
    23    30    33    1
    24    33    34    1
    25    34    35    1
    26    35    36    1
    27    36    37    1
    28    36    38    1
    29    30    31   ar
    30    31    32   ar
    31     3     4   ar
    32     4     5   ar
    33     5     6   ar
    34    18    19   ar
    35    19    20    1
    36    19    13   ar
    37     6     1   ar
    38    32    27   ar
    39     7    12    1
    40    25    26    1
@<TRIPOS>MOLECULE
*****
 38 40 0 0 0
SMALL
GASTEIGER

@<TRIPOS>ATOM
      1 C           6.3205   -3.5185   20.1061 C.ar    1  UNL1        0.1432
      2 C           5.5212   -2.2873   19.7974 C.ar    1  UNL1        0.0691
      3 C           4.1329   -2.4137   19.2437 C.ar    1  UNL1        0.1368
      4 N           3.5438   -3.7713   18.9987 N.ar    1  UNL1       -0.2088
      5 C           4.3431   -5.0025   19.3074 C.ar    1  UNL1        0.2012
      6 N           5.7315   -4.8761   19.8611 N.ar    1  UNL1       -0.2085
      7 N           6.9180   -4.4684   22.8883 N.am    1  UNL1       -0.2663
      8 C           8.0075   -3.8671   22.0510 C.2     1  UNL1        0.3126
      9 O           9.3959   -3.7407   22.6047 O.2     1  UNL1       -0.2519
     10 N           7.7088   -3.3921   20.6598 N.am    1  UNL1       -0.2261
     11 C           8.7983   -2.7907   19.8225 C.3     1  UNL1        0.1231
     12 H           6.0068   -4.5514   22.5249 H       1  UNL1        0.1565
     13 C           8.2474   -6.7107   25.8808 C.ar    1  UNL1        0.1535
     14 C           7.8142   -5.8934   27.0616 C.ar    1  UNL1        0.0756
     15 C           7.0823   -4.6011   26.8513 C.ar    1  UNL1        0.1535
     16 C           6.7835   -4.1261   25.4603 C.ar    1  UNL1        0.1060
     17 CL          6.0516   -2.8338   25.2500 Cl      1  UNL1       -0.0777
     18 C           7.2167   -4.9434   24.2795 C.ar    1  UNL1        0.0788
     19 C           7.9487   -6.2357   24.4898 C.ar    1  UNL1        0.1060
     20 CL          8.3818   -7.0530   23.3089 Cl      1  UNL1       -0.0777
     21 C           8.6844   -8.8443   27.2974 C.3     1  UNL1        0.2525
     22 O           8.9793   -8.0030   26.0911 O.3     1  UNL1       -0.4704
     23 O           6.6491   -3.7838   28.0322 O.3     1  UNL1       -0.4704
     24 C           6.7865   -4.3384   29.4191 C.3     1  UNL1        0.2525
     25 N           3.3336   -1.1826   18.9350 N.pl3   1  UNL1       -0.2978
     26 H           3.3011   -0.8348   18.0146 H       1  UNL1        0.1536
     27 C           2.5837   -0.4814   20.0287 C.ar    1  UNL1        0.0493
     28 C           3.2839   -0.1183   21.3046 C.ar    1  UNL1        0.0143
     29 C           2.5341    0.5829   22.3982 C.ar    1  UNL1       -0.0030
     30 C           1.0842    0.9210   22.2160 C.ar    1  UNL1       -0.0221
     31 C           0.3840    0.5579   20.9401 C.ar    1  UNL1       -0.0030
     32 C           1.1338   -0.1432   19.8464 C.ar    1  UNL1        0.0143
     33 C           0.3343    1.6222   23.3097 C.3     1  UNL1        0.0278
     34 C           0.4458    1.1382   24.7251 C.3     1  UNL1        0.0220
     35 C           0.3926    2.1183   25.8593 C.3     1  UNL1        0.0725
     36 N          -0.8374    2.2119   26.7127 N.3     1  UNL1       -0.2703
     37 C          -1.9262    3.1799   26.3555 C.3     1  UNL1        0.0897
     38 C          -0.9786    1.3375   27.9232 C.3     1  UNL1        0.0897
@<TRIPOS>BOND
     1    21    22    1
     2    22    13    1
     3    13    14   ar
     4    14    15   ar
     5    15    23    1
     6    23    24    1
     7    15    16   ar
     8    16    17    1
     9    16    18   ar
    10    18     7    1
    11     7     8   am
    12     8     9    2
    13     8    10   am
    14    10    11    1
    15    10     1    1
    16     1     2   ar
    17     2     3   ar
    18     3    25    1
    19    25    27    1
    20    27    28   ar
    21    28    29   ar
    22    29    30   ar
    23    30    33    1
    24    33    34    1
    25    34    35    1
    26    35    36    1
    27    36    37    1
    28    36    38    1
    29    30    31   ar
    30    31    32   ar
    31     3     4   ar
    32     4     5   ar
    33     5     6   ar
    34    18    19   ar
    35    19    20    1
    36    19    13   ar
    37     6     1   ar
    38    32    27   ar
    39     7    12    1
    40    25    26    1
@<TRIPOS>MOLECULE
*****
 38 40 0 0 0
SMALL
GASTEIGER

@<TRIPOS>ATOM
      1 C           3.8668    1.1192   29.8023 C.ar    1  UNL1        0.1432
      2 C           4.5719    0.3552   28.7211 C.ar    1  UNL1        0.0691
      3 C           3.8588   -0.7458   27.9936 C.ar    1  UNL1        0.1368
      4 N           2.4406   -1.0827   28.3472 N.ar    1  UNL1       -0.2088
      5 C           1.7354   -0.3187   29.4285 C.ar    1  UNL1        0.2012
      6 N           2.4485    0.7823   30.1561 N.ar    1  UNL1       -0.2085
      7 N           4.1878    0.9859   32.7822 N.am    1  UNL1       -0.2663
      8 C           4.7404    2.1535   32.0198 C.2     1  UNL1        0.3126
      9 O           5.4535    3.2545   32.7474 O.2     1  UNL1       -0.2519
     10 N           4.5799    2.2202   30.5299 N.am    1  UNL1       -0.2261
     11 C           5.1325    3.3879   29.7676 C.3     1  UNL1        0.1231
     12 H           3.7198    0.2632   32.3046 H       1  UNL1        0.1565
     13 C           3.5494    1.5843   36.6531 C.ar    1  UNL1        0.1535
     14 C           4.6692    0.7858   37.2518 C.ar    1  UNL1        0.0756
     15 C           5.6284    0.0539   36.3607 C.ar    1  UNL1        0.1535
     16 C           5.4680    0.1206   34.8708 C.ar    1  UNL1        0.1060
     17 CL          6.4273   -0.6113   33.9797 Cl      1  UNL1       -0.0777
     18 C           4.3483    0.9191   34.2721 C.ar    1  UNL1        0.0788
     19 C           3.3890    1.6510   35.1633 C.ar    1  UNL1        0.1060
     20 CL          2.2693    2.4496   34.5645 Cl      1  UNL1       -0.0777
     21 C           1.9501    1.6067   38.7005 C.3     1  UNL1        0.2525
     22 O           2.5902    2.3162   37.5443 O.3     1  UNL1       -0.4704
     23 O           6.7482   -0.7447   36.9595 O.3     1  UNL1       -0.4704
     24 C           8.0666   -0.0894   37.2467 C.3     1  UNL1        0.2525
     25 N           4.5639   -1.5098   26.9124 N.pl3   1  UNL1       -0.2978
     26 H           5.3165   -2.1026   27.1391 H       1  UNL1        0.1536
     27 C           4.1223   -1.3707   25.4855 C.ar    1  UNL1        0.0493
     28 C           4.6976   -2.2694   24.4314 C.ar    1  UNL1        0.0143
     29 C           4.2561   -2.1303   23.0046 C.ar    1  UNL1       -0.0030
     30 C           3.2392   -1.0925   22.6321 C.ar    1  UNL1       -0.0221
     31 C           2.6639   -0.1937   23.6862 C.ar    1  UNL1       -0.0030
     32 C           3.1055   -0.3328   25.1130 C.ar    1  UNL1        0.0143
     33 C           2.7977   -0.9534   21.2052 C.3     1  UNL1        0.0278
     34 C           3.6835   -1.4367   20.0955 C.3     1  UNL1        0.0220
     35 C           3.3991   -2.7485   19.4260 C.3     1  UNL1        0.0725
     36 N           4.5165   -3.5285   18.7992 N.3     1  UNL1       -0.2703
     37 C           5.6355   -2.8100   18.1052 C.3     1  UNL1        0.0897
     38 C           4.5149   -5.0270   18.8662 C.3     1  UNL1        0.0897
@<TRIPOS>BOND
     1    21    22    1
     2    22    13    1
     3    13    14   ar
     4    14    15   ar
     5    15    23    1
     6    23    24    1
     7    15    16   ar
     8    16    17    1
     9    16    18   ar
    10    18     7    1
    11     7     8   am
    12     8     9    2
    13     8    10   am
    14    10    11    1
    15    10     1    1
    16     1     2   ar
    17     2     3   ar
    18     3    25    1
    19    25    27    1
    20    27    28   ar
    21    28    29   ar
    22    29    30   ar
    23    30    33    1
    24    33    34    1
    25    34    35    1
    26    35    36    1
    27    36    37    1
    28    36    38    1
    29    30    31   ar
    30    31    32   ar
    31     3     4   ar
    32     4     5   ar
    33     5     6   ar
    34    18    19   ar
    35    19    20    1
    36    19    13   ar
    37     6     1   ar
    38    32    27   ar
    39     7    12    1
    40    25    26    1
@<TRIPOS>MOLECULE
*****
 38 40 0 0 0
SMALL
GASTEIGER

@<TRIPOS>ATOM
      1 C           0.8114    3.4973   22.7546 C.ar    1  UNL1        0.1432
      2 C           1.1600    2.8373   21.4536 C.ar    1  UNL1        0.0691
      3 C           0.0716    2.4098   20.5142 C.ar    1  UNL1        0.1368
      4 N          -1.3655    2.6422   20.8758 N.ar    1  UNL1       -0.2088
      5 C          -1.7142    3.3022   22.1770 C.ar    1  UNL1        0.2012
      6 N          -0.6257    3.7297   23.1164 N.ar    1  UNL1       -0.2085
      7 N           1.3025    1.9570   25.2818 N.am    1  UNL1       -0.2663
      8 C           2.1453    3.1547   24.9577 C.2     1  UNL1        0.3126
      9 O           3.2338    3.5823   25.8971 O.2     1  UNL1       -0.2519
     10 N           1.8998    3.9249   23.6941 N.am    1  UNL1       -0.2261
     11 C           2.7427    5.1225   23.3699 C.3     1  UNL1        0.1231
     12 H           0.5881    1.6764   24.6652 H       1  UNL1        0.1565
     13 C           2.8396   -0.6579   27.8410 C.ar    1  UNL1        0.1535
     14 C           2.0391   -0.3534   29.0725 C.ar    1  UNL1        0.0756
     15 C           0.9931    0.7212   29.0404 C.ar    1  UNL1        0.1535
     16 C           0.7475    1.4914   27.7769 C.ar    1  UNL1        0.1060
     17 CL         -0.2985    2.5660   27.7448 Cl      1  UNL1       -0.0777
     18 C           1.5480    1.1869   26.5454 C.ar    1  UNL1        0.0788
     19 C           2.5940    0.1122   26.5775 C.ar    1  UNL1        0.1060
     20 CL          3.3945   -0.1922   25.3460 Cl      1  UNL1       -0.0777
     21 C           5.2489   -1.4359   28.4237 C.3     1  UNL1        0.2525
     22 O           3.8856   -1.7325   27.8731 O.3     1  UNL1       -0.4704
     23 O           0.1926    1.0257   30.2719 O.3     1  UNL1       -0.4704
     24 C           0.5971    2.1583   31.1683 C.3     1  UNL1        0.2525
     25 N           0.4202    1.7498   19.2131 N.pl3   1  UNL1       -0.2978
     26 H          -0.0223    2.0365   18.3816 H       1  UNL1        0.1536
     27 C           1.4429    0.6530   19.1788 C.ar    1  UNL1        0.0493
     28 C           2.5775    0.7159   18.1996 C.ar    1  UNL1        0.0143
     29 C           3.6003   -0.3808   18.1653 C.ar    1  UNL1       -0.0030
     30 C           3.4884   -1.5404   19.1101 C.ar    1  UNL1       -0.0221
     31 C           2.3538   -1.6033   20.0892 C.ar    1  UNL1       -0.0030
     32 C           1.3310   -0.5066   20.1236 C.ar    1  UNL1        0.0143
     33 C           4.5111   -2.6372   19.0758 C.3     1  UNL1        0.0278
     34 C           4.3640   -3.8283   19.9756 C.3     1  UNL1        0.0220
     35 C           4.7625   -3.7320   21.4185 C.3     1  UNL1        0.0725
     36 N           6.1836   -3.9905   21.8230 N.3     1  UNL1       -0.2703
     37 C           6.5395   -4.1137   23.2750 C.3     1  UNL1        0.0897
     38 C           7.2487   -4.1259   20.7756 C.3     1  UNL1        0.0897
@<TRIPOS>BOND
     1    21    22    1
     2    22    13    1
     3    13    14   ar
     4    14    15   ar
     5    15    23    1
     6    23    24    1
     7    15    16   ar
     8    16    17    1
     9    16    18   ar
    10    18     7    1
    11     7     8   am
    12     8     9    2
    13     8    10   am
    14    10    11    1
    15    10     1    1
    16     1     2   ar
    17     2     3   ar
    18     3    25    1
    19    25    27    1
    20    27    28   ar
    21    28    29   ar
    22    29    30   ar
    23    30    33    1
    24    33    34    1
    25    34    35    1
    26    35    36    1
    27    36    37    1
    28    36    38    1
    29    30    31   ar
    30    31    32   ar
    31     3     4   ar
    32     4     5   ar
    33     5     6   ar
    34    18    19   ar
    35    19    20    1
    36    19    13   ar
    37     6     1   ar
    38    32    27   ar
    39     7    12    1
    40    25    26    1
