@<TRIPOS>MOLECULE
*****
 22 24 0 0 0
SMALL
GASTEIGER

@<TRIPOS>ATOM
      1 C          -8.0412  -18.2463   21.4066 C.ar    1  UNL1        0.0050
      2 S          -9.2041  -19.1340   21.0756 S.2     1  UNL1       -0.0915
      3 C         -10.4618  -18.4143   21.4632 C.ar    1  UNL1        0.0288
      4 C         -11.9083  -18.8001   21.3704 C.ar    1  UNL1        0.0065
      5 C         -12.9692  -17.8534   21.8481 C.ar    1  UNL1        0.0005
      6 C         -12.5835  -16.5208   22.4187 C.ar    1  UNL1        0.0000
      7 C         -11.1370  -16.1350   22.5115 C.ar    1  UNL1        0.0002
      8 C         -10.0761  -17.0817   22.0338 C.ar    1  UNL1        0.0025
      9 C          -8.5801  -16.9779   21.9988 C.ar    1  UNL1       -0.0153
     10 C          -6.5935  -18.5702   21.1844 C.3     1  UNL1        0.0499
     11 C          -5.7275  -18.9675   22.3428 C.3     1  UNL1        0.0774
     12 C          -3.4746  -17.9355   23.1236 C.3     1  UNL1        0.0897
     13 N          -4.2348  -18.8713   22.2310 N.3     1  UNL1       -0.2700
     14 C          -3.5022  -19.7107   21.2267 C.3     1  UNL1        0.0897
     15 C          -7.7660  -15.8106   22.4727 C.3     1  UNL1        0.0528
     16 C          -7.4382  -15.6670   23.9295 C.ar    1  UNL1       -0.0176
     17 C          -8.5380  -15.6696   24.9495 C.ar    1  UNL1       -0.0016
     18 C          -8.2101  -15.5259   26.4062 C.ar    1  UNL1        0.0293
     19 C          -6.7825  -15.3797   26.8428 C.ar    1  UNL1        0.1401
     20 F          -6.4547  -15.2360   28.2994 F       1  UNL1       -0.2042
     21 C          -5.6827  -15.3771   25.8227 C.ar    1  UNL1        0.0293
     22 C          -6.0106  -15.5208   24.3661 C.ar    1  UNL1       -0.0016
@<TRIPOS>BOND
     1    12    13    1
     2    13    14    1
     3    13    11    1
     4    11    10    1
     5    10     1    1
     6     1     2   ar
     7     2     3   ar
     8     3     4   ar
     9     4     5   ar
    10     5     6   ar
    11     6     7   ar
    12     7     8   ar
    13     8     9   ar
    14     9    15    1
    15    15    16    1
    16    16    17   ar
    17    17    18   ar
    18    18    19   ar
    19    19    20    1
    20    19    21   ar
    21    21    22   ar
    22     9     1   ar
    23    22    16   ar
    24     8     3   ar
@<TRIPOS>MOLECULE
*****
 22 24 0 0 0
SMALL
GASTEIGER

@<TRIPOS>ATOM
      1 C          -7.3919  -17.1060   22.7615 C.ar    1  UNL1        0.0050
      2 S          -8.6119  -16.3192   22.3839 S.2     1  UNL1       -0.0915
      3 C          -9.4338  -17.1579   21.4506 C.ar    1  UNL1        0.0288
      4 C         -10.7386  -16.9018   20.7564 C.ar    1  UNL1        0.0065
      5 C         -11.3313  -17.9508   19.8630 C.ar    1  UNL1        0.0005
      6 C         -10.6193  -19.2559   19.6637 C.ar    1  UNL1        0.0000
      7 C          -9.3145  -19.5120   20.3579 C.ar    1  UNL1        0.0002
      8 C          -8.7218  -18.4630   21.2513 C.ar    1  UNL1        0.0025
      9 C          -7.4598  -18.4309   22.0615 C.ar    1  UNL1       -0.0153
     10 C          -6.2963  -16.6482   23.6781 C.3     1  UNL1        0.0499
     11 C          -6.4629  -15.3887   24.4755 C.3     1  UNL1        0.0774
     12 C          -6.2602  -15.4134   27.0656 C.3     1  UNL1        0.0897
     13 N          -7.1084  -15.4375   25.8286 N.3     1  UNL1       -0.2700
     14 C          -8.6021  -15.5104   25.9448 C.3     1  UNL1        0.0897
     15 C          -6.4441  -19.5307   22.1552 C.3     1  UNL1        0.0528
     16 C          -5.0820  -19.3469   21.5541 C.ar    1  UNL1       -0.0176
     17 C          -3.8759  -19.2606   22.4417 C.ar    1  UNL1       -0.0016
     18 C          -2.5140  -19.0769   21.8405 C.ar    1  UNL1        0.0293
     19 C          -2.3582  -18.9795   20.3518 C.ar    1  UNL1        0.1401
     20 F          -0.9963  -18.7958   19.7507 F       1  UNL1       -0.2042
     21 C          -3.5643  -19.0659   19.4642 C.ar    1  UNL1        0.0293
     22 C          -4.9262  -19.2496   20.0654 C.ar    1  UNL1       -0.0016
@<TRIPOS>BOND
     1    12    13    1
     2    13    14    1
     3    13    11    1
     4    11    10    1
     5    10     1    1
     6     1     2   ar
     7     2     3   ar
     8     3     4   ar
     9     4     5   ar
    10     5     6   ar
    11     6     7   ar
    12     7     8   ar
    13     8     9   ar
    14     9    15    1
    15    15    16    1
    16    16    17   ar
    17    17    18   ar
    18    18    19   ar
    19    19    20    1
    20    19    21   ar
    21    21    22   ar
    22     9     1   ar
    23    22    16   ar
    24     8     3   ar
@<TRIPOS>MOLECULE
*****
 22 24 0 0 0
SMALL
GASTEIGER

@<TRIPOS>ATOM
      1 C          -5.9070  -18.8501   22.0509 C.ar    1  UNL1        0.0050
      2 S          -4.9609  -18.0349   22.8817 S.2     1  UNL1       -0.0915
      3 C          -5.7493  -16.9478   23.5500 C.ar    1  UNL1        0.0288
      4 C          -5.3472  -15.8460   24.4849 C.ar    1  UNL1        0.0065
      5 C          -6.3785  -14.8875   25.0021 C.ar    1  UNL1        0.0005
      6 C          -7.8120  -15.0308   24.5843 C.ar    1  UNL1        0.0000
      7 C          -8.2142  -16.1326   23.6494 C.ar    1  UNL1        0.0002
      8 C          -7.1828  -17.0911   23.1322 C.ar    1  UNL1        0.0025
      9 C          -7.2803  -18.2668   22.2057 C.ar    1  UNL1       -0.0153
     10 C          -5.5437  -20.0397   21.2125 C.3     1  UNL1        0.0499
     11 C          -4.7057  -19.8617   19.9813 C.3     1  UNL1        0.0774
     12 C          -2.3442  -19.8638   21.0646 C.3     1  UNL1        0.0897
     13 N          -3.3260  -19.2833   20.0903 N.3     1  UNL1       -0.2700
     14 C          -2.9280  -18.1245   19.2250 C.3     1  UNL1        0.0897
     15 C          -8.5314  -18.7707   21.5493 C.3     1  UNL1        0.0528
     16 C          -9.8597  -18.5778   22.2191 C.ar    1  UNL1       -0.0176
     17 C         -10.9108  -17.7276   21.5694 C.ar    1  UNL1       -0.0016
     18 C         -12.2390  -17.5348   22.2392 C.ar    1  UNL1        0.0293
     19 C         -12.5161  -18.1922   23.5586 C.ar    1  UNL1        0.1401
     20 F         -13.8444  -17.9993   24.2283 F       1  UNL1       -0.2042
     21 C         -11.4650  -19.0425   24.2084 C.ar    1  UNL1        0.0293
     22 C         -10.1368  -19.2353   23.5386 C.ar    1  UNL1       -0.0016
@<TRIPOS>BOND
     1    12    13    1
     2    13    14    1
     3    13    11    1
     4    11    10    1
     5    10     1    1
     6     1     2   ar
     7     2     3   ar
     8     3     4   ar
     9     4     5   ar
    10     5     6   ar
    11     6     7   ar
    12     7     8   ar
    13     8     9   ar
    14     9    15    1
    15    15    16    1
    16    16    17   ar
    17    17    18   ar
    18    18    19   ar
    19    19    20    1
    20    19    21   ar
    21    21    22   ar
    22     9     1   ar
    23    22    16   ar
    24     8     3   ar
@<TRIPOS>MOLECULE
*****
 22 24 0 0 0
SMALL
GASTEIGER

@<TRIPOS>ATOM
      1 C          -9.5171  -17.9546   21.3853 C.ar    1  UNL1        0.0050
      2 S          -9.0849  -19.2759   20.8220 S.2     1  UNL1       -0.0915
      3 C          -7.6168  -19.4345   21.0859 C.ar    1  UNL1        0.0288
      4 C          -6.6514  -20.5348   20.7586 C.ar    1  UNL1        0.0065
      5 C          -5.2107  -20.4118   21.1577 C.ar    1  UNL1        0.0005
      6 C          -4.7356  -19.1885   21.8842 C.ar    1  UNL1        0.0000
      7 C          -5.7010  -18.0882   22.2115 C.ar    1  UNL1        0.0002
      8 C          -7.1417  -18.2112   21.8123 C.ar    1  UNL1        0.0025
      9 C          -8.3161  -17.2966   21.9973 C.ar    1  UNL1       -0.0153
     10 C         -10.9063  -17.3904   21.3438 C.3     1  UNL1        0.0499
     11 C         -11.5638  -16.9225   22.6081 C.3     1  UNL1        0.0774
     12 C         -13.6483  -17.9599   23.7610 C.3     1  UNL1        0.0897
     13 N         -12.1629  -17.9195   23.5553 N.3     1  UNL1       -0.2700
     14 C         -11.2768  -18.8760   24.2967 C.3     1  UNL1        0.0897
     15 C          -8.2934  -15.9588   22.6754 C.3     1  UNL1        0.0528
     16 C          -7.8312  -15.8467   24.0981 C.ar    1  UNL1       -0.0176
     17 C          -6.4493  -15.3479   24.4006 C.ar    1  UNL1       -0.0016
     18 C          -5.9872  -15.2359   25.8232 C.ar    1  UNL1        0.0293
     19 C          -6.9069  -15.6227   26.9433 C.ar    1  UNL1        0.1401
     20 F          -6.4447  -15.5106   28.3659 F       1  UNL1       -0.2042
     21 C          -8.2888  -16.1215   26.6407 C.ar    1  UNL1        0.0293
     22 C          -8.7509  -16.2335   25.2181 C.ar    1  UNL1       -0.0016
@<TRIPOS>BOND
     1    12    13    1
     2    13    14    1
     3    13    11    1
     4    11    10    1
     5    10     1    1
     6     1     2   ar
     7     2     3   ar
     8     3     4   ar
     9     4     5   ar
    10     5     6   ar
    11     6     7   ar
    12     7     8   ar
    13     8     9   ar
    14     9    15    1
    15    15    16    1
    16    16    17   ar
    17    17    18   ar
    18    18    19   ar
    19    19    20    1
    20    19    21   ar
    21    21    22   ar
    22     9     1   ar
    23    22    16   ar
    24     8     3   ar
@<TRIPOS>MOLECULE
*****
 22 24 0 0 0
SMALL
GASTEIGER

@<TRIPOS>ATOM
      1 C          -4.4193  -18.7336   22.4837 C.ar    1  UNL1        0.0050
      2 S          -3.9584  -17.5440   23.2727 S.2     1  UNL1       -0.0915
      3 C          -5.1687  -16.7458   23.6576 C.ar    1  UNL1        0.0288
      4 C          -5.3261  -15.4750   24.4387 C.ar    1  UNL1        0.0065
      5 C          -6.6925  -14.9005   24.6687 C.ar    1  UNL1        0.0005
      6 C          -7.9014  -15.5967   24.1175 C.ar    1  UNL1        0.0000
      7 C          -7.7439  -16.8676   23.3364 C.ar    1  UNL1        0.0002
      8 C          -6.3776  -17.4421   23.1064 C.ar    1  UNL1        0.0025
      9 C          -5.9144  -18.6706   22.3809 C.ar    1  UNL1       -0.0153
     10 C          -3.5395  -19.7990   21.8999 C.3     1  UNL1        0.0499
     11 C          -2.1752  -19.4466   21.3856 C.3     1  UNL1        0.0774
     12 C          -2.7879  -18.5862   19.0119 C.3     1  UNL1        0.0897
     13 N          -2.0250  -18.4290   20.2939 N.3     1  UNL1       -0.2700
     14 C          -1.1120  -17.2542   20.4840 C.3     1  UNL1        0.0897
     15 C          -6.7923  -19.6620   21.6764 C.3     1  UNL1        0.0528
     16 C          -8.2689  -19.4174   21.5752 C.ar    1  UNL1       -0.0176
     17 C          -9.1745  -19.8185   22.7016 C.ar    1  UNL1       -0.0016
     18 C         -10.6509  -19.5739   22.6004 C.ar    1  UNL1        0.0293
     19 C         -11.2217  -18.9281   21.3727 C.ar    1  UNL1        0.1401
     20 F         -12.6982  -18.6835   21.2715 F       1  UNL1       -0.2042
     21 C         -10.3161  -18.5270   20.2462 C.ar    1  UNL1        0.0293
     22 C          -8.8397  -18.7716   20.3475 C.ar    1  UNL1       -0.0016
@<TRIPOS>BOND
     1    12    13    1
     2    13    14    1
     3    13    11    1
     4    11    10    1
     5    10     1    1
     6     1     2   ar
     7     2     3   ar
     8     3     4   ar
     9     4     5   ar
    10     5     6   ar
    11     6     7   ar
    12     7     8   ar
    13     8     9   ar
    14     9    15    1
    15    15    16    1
    16    16    17   ar
    17    17    18   ar
    18    18    19   ar
    19    19    20    1
    20    19    21   ar
    21    21    22   ar
    22     9     1   ar
    23    22    16   ar
    24     8     3   ar
@<TRIPOS>MOLECULE
*****
 22 24 0 0 0
SMALL
GASTEIGER

@<TRIPOS>ATOM
      1 C          -3.6675  -17.7840   22.5265 C.ar    1  UNL1        0.0050
      2 S          -4.0244  -19.1089   21.9204 S.2     1  UNL1       -0.0915
      3 C          -5.5102  -19.2835   22.0299 C.ar    1  UNL1        0.0288
      4 C          -6.4244  -20.3934   21.6031 C.ar    1  UNL1        0.0065
      5 C          -7.9000  -20.2864   21.8501 C.ar    1  UNL1        0.0005
      6 C          -8.4614  -19.0695   22.5239 C.ar    1  UNL1        0.0000
      7 C          -7.5471  -17.9596   22.9506 C.ar    1  UNL1        0.0002
      8 C          -6.0715  -18.0666   22.7036 C.ar    1  UNL1        0.0025
      9 C          -4.9327  -17.1399   23.0105 C.ar    1  UNL1       -0.0153
     10 C          -2.2876  -17.2050   22.6303 C.3     1  UNL1        0.0499
     11 C          -1.7109  -16.4307   21.4823 C.3     1  UNL1        0.0774
     12 C          -2.3078  -17.3352   19.1210 C.3     1  UNL1        0.0897
     13 N          -1.3097  -17.1421   20.2241 N.3     1  UNL1       -0.2700
     14 C           0.0893  -17.6603   20.0689 C.3     1  UNL1        0.0897
     15 C          -5.0402  -15.8036   23.6834 C.3     1  UNL1        0.0528
     16 C          -6.0270  -15.6007   24.7948 C.ar    1  UNL1       -0.0176
     17 C          -5.5730  -15.6695   26.2228 C.ar    1  UNL1       -0.0016
     18 C          -6.5598  -15.4666   27.3341 C.ar    1  UNL1        0.0293
     19 C          -8.0006  -15.1949   27.0174 C.ar    1  UNL1        0.1401
     20 F          -8.9874  -14.9921   28.1288 F       1  UNL1       -0.2042
     21 C          -8.4546  -15.1261   25.5895 C.ar    1  UNL1        0.0293
     22 C          -7.4678  -15.3290   24.4782 C.ar    1  UNL1       -0.0016
@<TRIPOS>BOND
     1    12    13    1
     2    13    14    1
     3    13    11    1
     4    11    10    1
     5    10     1    1
     6     1     2   ar
     7     2     3   ar
     8     3     4   ar
     9     4     5   ar
    10     5     6   ar
    11     6     7   ar
    12     7     8   ar
    13     8     9   ar
    14     9    15    1
    15    15    16    1
    16    16    17   ar
    17    17    18   ar
    18    18    19   ar
    19    19    20    1
    20    19    21   ar
    21    21    22   ar
    22     9     1   ar
    23    22    16   ar
    24     8     3   ar
@<TRIPOS>MOLECULE
*****
 22 24 0 0 0
SMALL
GASTEIGER

@<TRIPOS>ATOM
      1 C          -9.9391  -19.1899   20.6028 C.ar    1  UNL1        0.0050
      2 S          -8.9032  -19.3124   19.5249 S.2     1  UNL1       -0.0915
      3 C          -7.5566  -19.3832   20.1820 C.ar    1  UNL1        0.0288
      4 C          -6.1713  -19.5093   19.6207 C.ar    1  UNL1        0.0065
      5 C          -4.9897  -19.5566   20.5434 C.ar    1  UNL1        0.0005
      6 C          -5.1934  -19.4778   22.0274 C.ar    1  UNL1        0.0000
      7 C          -6.5787  -19.3518   22.5887 C.ar    1  UNL1        0.0002
      8 C          -7.7603  -19.3045   21.6660 C.ar    1  UNL1        0.0025
      9 C          -9.2327  -19.1850   21.9260 C.ar    1  UNL1       -0.0153
     10 C         -11.4211  -19.0898   20.3941 C.3     1  UNL1        0.0499
     11 C         -12.2407  -18.1798   21.2602 C.3     1  UNL1        0.0774
     12 C         -12.2295  -15.8519   22.4138 C.3     1  UNL1        0.0897
     13 N         -12.0417  -16.6949   21.1873 N.3     1  UNL1       -0.2700
     14 C         -11.6548  -16.0529   19.8880 C.3     1  UNL1        0.0897
     15 C          -9.8844  -19.0792   23.2730 C.3     1  UNL1        0.0528
     16 C          -9.4446  -18.0180   24.2377 C.ar    1  UNL1       -0.0176
     17 C          -9.4437  -18.2978   25.7113 C.ar    1  UNL1       -0.0016
     18 C          -9.0039  -17.2366   26.6759 C.ar    1  UNL1        0.0293
     19 C          -8.5650  -15.8957   26.1669 C.ar    1  UNL1        0.1401
     20 F          -8.1252  -14.8345   27.1315 F       1  UNL1       -0.2042
     21 C          -8.5659  -15.6158   24.6932 C.ar    1  UNL1        0.0293
     22 C          -9.0057  -16.6770   23.7286 C.ar    1  UNL1       -0.0016
@<TRIPOS>BOND
     1    12    13    1
     2    13    14    1
     3    13    11    1
     4    11    10    1
     5    10     1    1
     6     1     2   ar
     7     2     3   ar
     8     3     4   ar
     9     4     5   ar
    10     5     6   ar
    11     6     7   ar
    12     7     8   ar
    13     8     9   ar
    14     9    15    1
    15    15    16    1
    16    16    17   ar
    17    17    18   ar
    18    18    19   ar
    19    19    20    1
    20    19    21   ar
    21    21    22   ar
    22     9     1   ar
    23    22    16   ar
    24     8     3   ar
@<TRIPOS>MOLECULE
*****
 22 24 0 0 0
SMALL
GASTEIGER

@<TRIPOS>ATOM
      1 C          -7.3401  -19.2029   21.9741 C.ar    1  UNL1        0.0050
      2 S          -6.2732  -20.2049   21.6458 S.2     1  UNL1       -0.0915
      3 C          -4.9410  -19.5614   21.8927 C.ar    1  UNL1        0.0288
      4 C          -3.5377  -20.0692   21.7418 C.ar    1  UNL1        0.0065
      5 C          -2.3778  -19.1771   22.0717 C.ar    1  UNL1        0.0005
      6 C          -2.6212  -17.7773   22.5525 C.ar    1  UNL1        0.0000
      7 C          -4.0245  -17.2695   22.7035 C.ar    1  UNL1        0.0002
      8 C          -5.1844  -18.1615   22.3736 C.ar    1  UNL1        0.0025
      9 C          -6.6671  -17.9400   22.4239 C.ar    1  UNL1       -0.0153
     10 C          -8.8200  -19.4247   21.8708 C.3     1  UNL1        0.0499
     11 C          -9.6576  -19.4868   23.1135 C.3     1  UNL1        0.0774
     12 C         -11.6878  -18.6370   24.4942 C.3     1  UNL1        0.0897
     13 N         -10.7554  -18.4875   23.3287 N.3     1  UNL1       -0.2700
     14 C         -10.9207  -17.3387   22.3785 C.3     1  UNL1        0.0897
     15 C          -7.3559  -16.6772   22.8493 C.3     1  UNL1        0.0528
     16 C          -7.1971  -16.1725   24.2529 C.ar    1  UNL1       -0.0176
     17 C          -8.3427  -16.2637   25.2169 C.ar    1  UNL1       -0.0016
     18 C          -8.1838  -15.7590   26.6204 C.ar    1  UNL1        0.0293
     19 C          -6.8794  -15.1632   27.0601 C.ar    1  UNL1        0.1401
     20 F          -6.7206  -14.6585   28.4637 F       1  UNL1       -0.2042
     21 C          -5.7337  -15.0720   26.0962 C.ar    1  UNL1        0.0293
     22 C          -5.8926  -15.5767   24.6926 C.ar    1  UNL1       -0.0016
@<TRIPOS>BOND
     1    12    13    1
     2    13    14    1
     3    13    11    1
     4    11    10    1
     5    10     1    1
     6     1     2   ar
     7     2     3   ar
     8     3     4   ar
     9     4     5   ar
    10     5     6   ar
    11     6     7   ar
    12     7     8   ar
    13     8     9   ar
    14     9    15    1
    15    15    16    1
    16    16    17   ar
    17    17    18   ar
    18    18    19   ar
    19    19    20    1
    20    19    21   ar
    21    21    22   ar
    22     9     1   ar
    23    22    16   ar
    24     8     3   ar
@<TRIPOS>MOLECULE
*****
 22 24 0 0 0
SMALL
GASTEIGER

@<TRIPOS>ATOM
      1 C          -6.8338  -17.4145   22.9423 C.ar    1  UNL1        0.0050
      2 S          -5.7901  -16.5826   23.6269 S.2     1  UNL1       -0.0915
      3 C          -6.3742  -16.0697   24.9098 C.ar    1  UNL1        0.0288
      4 C          -5.8085  -15.2002   25.9933 C.ar    1  UNL1        0.0065
      5 C          -6.6475  -14.8458   27.1851 C.ar    1  UNL1        0.0005
      6 C          -8.0522  -15.3607   27.2933 C.ar    1  UNL1        0.0000
      7 C          -8.6179  -16.2301   26.2098 C.ar    1  UNL1        0.0002
      8 C          -7.7789  -16.5846   25.0180 C.ar    1  UNL1        0.0025
      9 C          -8.0629  -17.4158   23.8021 C.ar    1  UNL1       -0.0153
     10 C          -6.6760  -18.1212   21.6286 C.3     1  UNL1        0.0499
     11 C          -5.8185  -19.3483   21.5353 C.3     1  UNL1        0.0774
     12 C          -3.2761  -19.3472   22.0705 C.3     1  UNL1        0.0897
     13 N          -4.3946  -19.2353   21.0772 N.3     1  UNL1       -0.2700
     14 C          -4.0892  -19.0102   19.6260 C.3     1  UNL1        0.0897
     15 C          -9.3501  -18.1238   23.4991 C.3     1  UNL1        0.0528
     16 C         -10.3393  -17.5098   22.5532 C.ar    1  UNL1       -0.0176
     17 C         -10.3129  -17.8756   21.0988 C.ar    1  UNL1       -0.0016
     18 C         -11.3020  -17.2616   20.1530 C.ar    1  UNL1        0.0293
     19 C         -12.3175  -16.2818   20.6616 C.ar    1  UNL1        0.1401
     20 F         -13.3067  -15.6678   19.7158 F       1  UNL1       -0.2042
     21 C         -12.3439  -15.9160   22.1161 C.ar    1  UNL1        0.0293
     22 C         -11.3548  -16.5300   23.0619 C.ar    1  UNL1       -0.0016
@<TRIPOS>BOND
     1    12    13    1
     2    13    14    1
     3    13    11    1
     4    11    10    1
     5    10     1    1
     6     1     2   ar
     7     2     3   ar
     8     3     4   ar
     9     4     5   ar
    10     5     6   ar
    11     6     7   ar
    12     7     8   ar
    13     8     9   ar
    14     9    15    1
    15    15    16    1
    16    16    17   ar
    17    17    18   ar
    18    18    19   ar
    19    19    20    1
    20    19    21   ar
    21    21    22   ar
    22     9     1   ar
    23    22    16   ar
    24     8     3   ar
