@<TRIPOS>MOLECULE
*****
 23 25 0 0 0
SMALL
GASTEIGER

@<TRIPOS>ATOM
      1 C          -8.3295  -17.3213   22.2578 C.2     1  UNL1        0.1700
      2 O          -9.3654  -16.9894   21.2251 O.2     1  UNL1       -0.2916
      3 C          -7.1447  -18.1637   21.8880 C.2     1  UNL1        0.0192
      4 C          -7.3219  -19.3578   20.9979 C.2     1  UNL1        0.0301
      5 C          -6.1371  -20.2002   20.6280 C.2     1  UNL1        0.1571
      6 F          -6.3144  -21.3944   19.7378 F       1  UNL1       -0.2026
      7 C          -4.7750  -19.8482   21.1485 C.2     1  UNL1        0.1050
      8 N          -3.4313  -20.4865   20.9561 N.2     1  UNL1       -0.2419
      9 C          -2.4236  -19.6867   21.7273 C.2     1  UNL1        0.0986
     10 C          -3.1445  -18.5542   22.3964 C.2     1  UNL1        0.0183
     11 C          -4.5977  -18.6540   22.0386 C.2     1  UNL1        0.0037
     12 C          -5.7826  -17.8117   22.4084 C.3     1  UNL1        0.0572
     13 C          -8.4783  -16.8110   23.6604 C.3     1  UNL1        0.0710
     14 C          -8.7450  -16.5858   25.1193 C.3     1  UNL1        0.0257
     15 C          -8.3151  -15.1895   25.4589 C.3     1  UNL1        0.0690
     16 N          -7.7828  -14.5517   24.2099 N.3     1  UNL1       -0.2971
     17 C          -7.8837  -15.5538   23.0984 C.3     1  UNL1        0.0758
     18 H          -6.8083  -14.2833   24.3466 H       1  UNL1        0.1233
     19 C          -9.0419  -18.1749   23.9293 C.3     1  UNL1        0.0086
     20 C         -10.4644  -18.3229   24.3814 C.3     1  UNL1        0.0005
     21 C         -12.8795  -18.0834   23.4539 C.3     1  UNL1        0.0000
     22 C         -11.5252  -18.7260   23.4005 C.3     1  UNL1        0.0000
     23 C         -11.2316  -19.7719   22.3660 C.3     1  UNL1        0.0000
@<TRIPOS>BOND
     1    21    22    1
     2    22    23    1
     3    22    20    1
     4    20    19    1
     5    19    13    1
     6    13     1    1
     7     1     2    2
     8     1     3    1
     9     3     4    2
    10     4     5    1
    11     5     6    1
    12     5     7    2
    13     7     8    1
    14     8     9    2
    15     9    10    1
    16    10    11    2
    17    11    12    1
    18    13    14    1
    19    14    15    1
    20    15    16    1
    21    16    17    1
    22    17    13    1
    23    12     3    1
    24    11     7    1
    25    16    18    1
@<TRIPOS>MOLECULE
*****
 23 25 0 0 0
SMALL
GASTEIGER

@<TRIPOS>ATOM
      1 C          -8.5039  -17.9265   22.2263 C.2     1  UNL1        0.1700
      2 O          -9.1699  -17.0153   21.2384 O.2     1  UNL1       -0.2916
      3 C          -7.1728  -18.5381   21.9037 C.2     1  UNL1        0.0192
      4 C          -7.0914  -19.7056   20.9655 C.2     1  UNL1        0.0301
      5 C          -5.7602  -20.3172   20.6428 C.2     1  UNL1        0.1571
      6 F          -5.6789  -21.4847   19.7046 F       1  UNL1       -0.2026
      7 C          -4.5105  -19.7612   21.2584 C.2     1  UNL1        0.1050
      8 N          -3.0682  -20.1525   21.1294 N.2     1  UNL1       -0.2419
      9 C          -2.2582  -19.2267   21.9878 C.2     1  UNL1        0.0986
     10 C          -3.1999  -18.2633   22.6474 C.2     1  UNL1        0.0183
     11 C          -4.5919  -18.5936   22.1967 C.2     1  UNL1        0.0037
     12 C          -5.9230  -17.9821   22.5193 C.3     1  UNL1        0.0572
     13 C          -9.1690  -18.2262   23.5370 C.3     1  UNL1        0.0710
     14 C          -9.8018  -18.2179   24.8970 C.3     1  UNL1        0.0257
     15 C         -10.2082  -19.6234   25.2277 C.3     1  UNL1        0.0690
     16 N          -9.8265  -20.5003   24.0721 N.3     1  UNL1       -0.2971
     17 C          -9.1843  -19.6368   23.0272 C.3     1  UNL1        0.0758
     18 H         -10.6586  -20.9479   23.6877 H       1  UNL1        0.1233
     19 C          -9.0147  -16.7529   23.7728 C.3     1  UNL1        0.0086
     20 C          -8.8403  -16.2309   25.1682 C.3     1  UNL1        0.0005
     21 C          -7.1604  -15.5723   27.0375 C.3     1  UNL1        0.0000
     22 C          -7.5317  -15.6278   25.5852 C.3     1  UNL1        0.0000
     23 C          -6.5945  -15.0801   24.5501 C.3     1  UNL1        0.0000
@<TRIPOS>BOND
     1    21    22    1
     2    22    23    1
     3    22    20    1
     4    20    19    1
     5    19    13    1
     6    13     1    1
     7     1     2    2
     8     1     3    1
     9     3     4    2
    10     4     5    1
    11     5     6    1
    12     5     7    2
    13     7     8    1
    14     8     9    2
    15     9    10    1
    16    10    11    2
    17    11    12    1
    18    13    14    1
    19    14    15    1
    20    15    16    1
    21    16    17    1
    22    17    13    1
    23    12     3    1
    24    11     7    1
    25    16    18    1
@<TRIPOS>MOLECULE
*****
 23 25 0 0 0
SMALL
GASTEIGER

@<TRIPOS>ATOM
      1 C          -8.5934  -19.0499   22.7295 C.2     1  UNL1        0.1700
      2 O          -9.2351  -20.2491   23.3617 O.2     1  UNL1       -0.2916
      3 C          -7.1541  -19.1030   22.3100 C.2     1  UNL1        0.0192
      4 C          -6.7096  -20.0978   21.2792 C.2     1  UNL1        0.0301
      5 C          -5.2704  -20.1509   20.8597 C.2     1  UNL1        0.1571
      6 F          -4.8258  -21.1458   19.8289 F       1  UNL1       -0.2026
      7 C          -4.2758  -19.2091   21.4712 C.2     1  UNL1        0.1050
      8 N          -2.8020  -19.0286   21.2580 N.2     1  UNL1       -0.2419
      9 C          -2.3358  -17.9222   22.1572 C.2     1  UNL1        0.0986
     10 C          -3.5214  -17.4189   22.9260 C.2     1  UNL1        0.0183
     11 C          -4.7204  -18.2143   22.5020 C.2     1  UNL1        0.0037
     12 C          -6.1596  -18.1612   22.9214 C.3     1  UNL1        0.0572
     13 C          -9.3908  -17.7973   22.5167 C.3     1  UNL1        0.0710
     14 C         -10.1426  -16.5027   22.6112 C.3     1  UNL1        0.0257
     15 C         -10.6589  -16.1657   21.2439 C.3     1  UNL1        0.0690
     16 N         -10.2264  -17.2519   20.3043 N.3     1  UNL1       -0.2971
     17 C          -9.4426  -18.2604   21.0909 C.3     1  UNL1        0.0758
     18 H          -9.6423  -16.8589   19.5662 H       1  UNL1        0.1233
     19 C          -9.1723  -17.5961   23.9870 C.3     1  UNL1        0.0086
     20 C          -9.0965  -16.2083   24.5510 C.3     1  UNL1        0.0005
     21 C          -6.7304  -15.2328   24.9981 C.3     1  UNL1        0.0000
     22 C          -8.0002  -15.8467   25.5087 C.3     1  UNL1        0.0000
     23 C          -8.1736  -16.0990   26.9771 C.3     1  UNL1        0.0000
@<TRIPOS>BOND
     1    21    22    1
     2    22    23    1
     3    22    20    1
     4    20    19    1
     5    19    13    1
     6    13     1    1
     7     1     2    2
     8     1     3    1
     9     3     4    2
    10     4     5    1
    11     5     6    1
    12     5     7    2
    13     7     8    1
    14     8     9    2
    15     9    10    1
    16    10    11    2
    17    11    12    1
    18    13    14    1
    19    14    15    1
    20    15    16    1
    21    16    17    1
    22    17    13    1
    23    12     3    1
    24    11     7    1
    25    16    18    1
@<TRIPOS>MOLECULE
*****
 23 25 0 0 0
SMALL
GASTEIGER

@<TRIPOS>ATOM
      1 C          -8.8047  -17.0077   23.2967 C.2     1  UNL1        0.1700
      2 O          -8.3623  -15.6832   23.8440 O.2     1  UNL1       -0.2916
      3 C          -7.8517  -17.8445   22.4957 C.2     1  UNL1        0.0192
      4 C          -8.3492  -18.6274   21.3170 C.2     1  UNL1        0.0301
      5 C          -7.3961  -19.4642   20.5160 C.2     1  UNL1        0.1571
      6 F          -7.8938  -20.2471   19.3372 F       1  UNL1       -0.2026
      7 C          -5.9455  -19.5180   20.8938 C.2     1  UNL1        0.1050
      8 N          -4.7794  -20.2489   20.2972 N.2     1  UNL1       -0.2419
      9 C          -3.5612  -19.9177   21.1072 C.2     1  UNL1        0.0986
     10 C          -3.9743  -18.9821   22.2045 C.2     1  UNL1        0.0183
     11 C          -5.4480  -18.7350   22.0726 C.2     1  UNL1        0.0037
     12 C          -6.4010  -17.8983   22.8735 C.3     1  UNL1        0.0572
     13 C         -10.2003  -17.4956   23.5503 C.3     1  UNL1        0.0710
     14 C         -11.6756  -17.7634   23.5954 C.3     1  UNL1        0.0257
     15 C         -11.9144  -18.8803   24.5677 C.3     1  UNL1        0.0690
     16 N         -10.5869  -19.3029   25.1234 N.3     1  UNL1       -0.2971
     17 C          -9.5275  -18.4471   24.4947 C.3     1  UNL1        0.0758
     18 H         -10.4156  -20.2838   24.9026 H       1  UNL1        0.1233
     19 C         -10.5814  -16.4421   22.5529 C.3     1  UNL1        0.0086
     20 C         -11.7505  -16.6622   21.6391 C.3     1  UNL1        0.0005
     21 C         -11.6458  -15.6714   19.2397 C.3     1  UNL1        0.0000
     22 C         -11.5278  -16.8445   20.1670 C.3     1  UNL1        0.0000
     23 C         -11.1872  -18.1999   19.6221 C.3     1  UNL1        0.0000
@<TRIPOS>BOND
     1    21    22    1
     2    22    23    1
     3    22    20    1
     4    20    19    1
     5    19    13    1
     6    13     1    1
     7     1     2    2
     8     1     3    1
     9     3     4    2
    10     4     5    1
    11     5     6    1
    12     5     7    2
    13     7     8    1
    14     8     9    2
    15     9    10    1
    16    10    11    2
    17    11    12    1
    18    13    14    1
    19    14    15    1
    20    15    16    1
    21    16    17    1
    22    17    13    1
    23    12     3    1
    24    11     7    1
    25    16    18    1
@<TRIPOS>MOLECULE
*****
 23 25 0 0 0
SMALL
GASTEIGER

@<TRIPOS>ATOM
      1 C          -7.3156  -18.0818   21.9076 C.2     1  UNL1        0.1700
      2 O          -7.2111  -18.2368   20.4193 O.2     1  UNL1       -0.2916
      3 C          -8.6363  -18.2780   22.5912 C.2     1  UNL1        0.0192
      4 C          -8.7579  -19.2566   23.7213 C.2     1  UNL1        0.0301
      5 C         -10.0786  -19.4528   24.4050 C.2     1  UNL1        0.1571
      6 F         -10.2001  -20.4316   25.5352 F       1  UNL1       -0.2026
      7 C         -11.2777  -18.6701   23.9584 C.2     1  UNL1        0.1050
      8 N         -12.6989  -18.6504   24.4378 N.2     1  UNL1       -0.2419
      9 C         -13.4557  -17.6595   23.6039 C.2     1  UNL1        0.0986
     10 C         -12.5022  -17.0667   22.6091 C.2     1  UNL1        0.0183
     11 C         -11.1561  -17.6913   22.8282 C.2     1  UNL1        0.0037
     12 C          -9.8354  -17.4952   22.1446 C.3     1  UNL1        0.0572
     13 C          -6.0994  -17.7308   22.7123 C.3     1  UNL1        0.0710
     14 C          -5.0477  -17.1239   23.5931 C.3     1  UNL1        0.0257
     15 C          -3.8649  -18.0462   23.6056 C.3     1  UNL1        0.0690
     16 N          -4.1855  -19.2231   22.7326 N.3     1  UNL1       -0.2971
     17 C          -5.5665  -19.0282   22.1805 C.3     1  UNL1        0.0758
     18 H          -4.1504  -20.0816   23.2823 H       1  UNL1        0.1233
     19 C          -6.8866  -16.5068   23.0759 C.3     1  UNL1        0.0086
     20 C          -6.5444  -15.7361   24.3165 C.3     1  UNL1        0.0005
     21 C          -7.0861  -15.5653   26.8517 C.3     1  UNL1        0.0000
     22 C          -7.5474  -15.6160   25.4253 C.3     1  UNL1        0.0000
     23 C          -9.0118  -15.5465   25.1078 C.3     1  UNL1        0.0000
@<TRIPOS>BOND
     1    21    22    1
     2    22    23    1
     3    22    20    1
     4    20    19    1
     5    19    13    1
     6    13     1    1
     7     1     2    2
     8     1     3    1
     9     3     4    2
    10     4     5    1
    11     5     6    1
    12     5     7    2
    13     7     8    1
    14     8     9    2
    15     9    10    1
    16    10    11    2
    17    11    12    1
    18    13    14    1
    19    14    15    1
    20    15    16    1
    21    16    17    1
    22    17    13    1
    23    12     3    1
    24    11     7    1
    25    16    18    1
@<TRIPOS>MOLECULE
*****
 23 25 0 0 0
SMALL
GASTEIGER

@<TRIPOS>ATOM
      1 C         -12.9376   -6.6981   17.4471 C.2     1  UNL1        0.1700
      2 O         -13.0319   -5.8244   16.2316 O.2     1  UNL1       -0.2916
      3 C         -14.1454   -7.4458   17.9290 C.2     1  UNL1        0.0192
      4 C         -14.2500   -8.9253   17.7062 C.2     1  UNL1        0.0301
      5 C         -15.4579   -9.6730   18.1882 C.2     1  UNL1        0.1571
      6 F         -15.5623  -11.1527   17.9653 F       1  UNL1       -0.2026
      7 C         -16.5611   -8.9408   18.8929 C.2     1  UNL1        0.1050
      8 N         -17.8625   -9.4065   19.4757 N.2     1  UNL1       -0.2419
      9 C         -18.5622   -8.2147   20.0586 C.2     1  UNL1        0.0986
     10 C         -17.6933   -7.0123   19.8362 C.2     1  UNL1        0.0183
     11 C         -16.4566   -7.4611   19.1157 C.2     1  UNL1        0.0037
     12 C         -15.2487   -6.7136   18.6338 C.3     1  UNL1        0.0572
     13 C         -11.6354   -6.8244   18.1808 C.3     1  UNL1        0.0710
     14 C         -10.4495   -6.7212   19.0937 C.3     1  UNL1        0.0257
     15 C          -9.4320   -7.7288   18.6475 C.3     1  UNL1        0.0690
     16 N          -9.9889   -8.4548   17.4589 N.3     1  UNL1       -0.2971
     17 C         -11.3506   -7.8959   17.1705 C.3     1  UNL1        0.0758
     18 H         -10.0602   -9.4514   17.6642 H       1  UNL1        0.1233
     19 C         -12.1923   -5.7265   19.0378 C.3     1  UNL1        0.0086
     20 C         -11.5458   -4.3729   19.0366 C.3     1  UNL1        0.0005
     21 C         -11.9279   -1.8038   18.9772 C.3     1  UNL1        0.0000
     22 C         -12.3311   -3.1663   19.4578 C.3     1  UNL1        0.0000
     23 C         -13.5196   -3.3222   20.3595 C.3     1  UNL1        0.0000
@<TRIPOS>BOND
     1    21    22    1
     2    22    23    1
     3    22    20    1
     4    20    19    1
     5    19    13    1
     6    13     1    1
     7     1     2    2
     8     1     3    1
     9     3     4    2
    10     4     5    1
    11     5     6    1
    12     5     7    2
    13     7     8    1
    14     8     9    2
    15     9    10    1
    16    10    11    2
    17    11    12    1
    18    13    14    1
    19    14    15    1
    20    15    16    1
    21    16    17    1
    22    17    13    1
    23    12     3    1
    24    11     7    1
    25    16    18    1
@<TRIPOS>MOLECULE
*****
 23 25 0 0 0
SMALL
GASTEIGER

@<TRIPOS>ATOM
      1 C          -7.2052  -18.8702   22.2344 C.2     1  UNL1        0.1700
      2 O          -7.7032  -20.2054   22.7024 O.2     1  UNL1       -0.2916
      3 C          -5.7504  -18.6796   21.9224 C.2     1  UNL1        0.0192
      4 C          -4.7893  -18.3214   23.0168 C.2     1  UNL1        0.0301
      5 C          -3.3345  -18.1308   22.7048 C.2     1  UNL1        0.1571
      6 F          -2.3733  -17.7725   23.7994 F       1  UNL1       -0.2026
      7 C          -2.8409  -18.2985   21.2983 C.2     1  UNL1        0.1050
      8 N          -1.4740  -18.1752   20.6930 N.2     1  UNL1       -0.2419
      9 C          -1.5904  -18.4572   19.2243 C.2     1  UNL1        0.0986
     10 C          -3.0292  -18.7549   18.9221 C.2     1  UNL1        0.0183
     11 C          -3.8020  -18.6567   20.2039 C.2     1  UNL1        0.0037
     12 C          -5.2568  -18.8473   20.5159 C.3     1  UNL1        0.0572
     13 C          -8.1619  -17.7255   22.0784 C.3     1  UNL1        0.0710
     14 C          -8.9325  -16.4396   22.1315 C.3     1  UNL1        0.0257
     15 C         -10.0990  -16.5594   21.1963 C.3     1  UNL1        0.0690
     16 N         -10.0494  -17.9192   20.5651 N.3     1  UNL1       -0.2971
     17 C          -8.8522  -18.6399   21.1102 C.3     1  UNL1        0.0758
     18 H          -9.9671  -17.8280   19.5526 H       1  UNL1        0.1233
     19 C          -7.2715  -17.0504   23.0791 C.3     1  UNL1        0.0086
     20 C          -7.8142  -15.9530   23.9458 C.3     1  UNL1        0.0005
     21 C          -7.9882  -15.5985   26.5137 C.3     1  UNL1        0.0000
     22 C          -7.1633  -15.6452   25.2617 C.3     1  UNL1        0.0000
     23 C          -5.6876  -15.3841   25.3257 C.3     1  UNL1        0.0000
@<TRIPOS>BOND
     1    21    22    1
     2    22    23    1
     3    22    20    1
     4    20    19    1
     5    19    13    1
     6    13     1    1
     7     1     2    2
     8     1     3    1
     9     3     4    2
    10     4     5    1
    11     5     6    1
    12     5     7    2
    13     7     8    1
    14     8     9    2
    15     9    10    1
    16    10    11    2
    17    11    12    1
    18    13    14    1
    19    14    15    1
    20    15    16    1
    21    16    17    1
    22    17    13    1
    23    12     3    1
    24    11     7    1
    25    16    18    1
@<TRIPOS>MOLECULE
*****
 23 25 0 0 0
SMALL
GASTEIGER

@<TRIPOS>ATOM
      1 C         -12.2634   -5.9422   17.3879 C.2     1  UNL1        0.1700
      2 O         -12.0670   -5.3999   16.0033 O.2     1  UNL1       -0.2916
      3 C         -13.6460   -6.0622   17.9573 C.2     1  UNL1        0.0192
      4 C         -14.5654   -4.8771   17.9505 C.2     1  UNL1        0.0301
      5 C         -15.9480   -4.9971   18.5199 C.2     1  UNL1        0.1571
      6 F         -16.8674   -3.8119   18.5131 F       1  UNL1       -0.2026
      7 C         -16.4110   -6.3023   19.0962 C.2     1  UNL1        0.1050
      8 N         -17.7086   -6.7186   19.7231 N.2     1  UNL1       -0.2419
      9 C         -17.5910   -8.1611   20.1174 C.2     1  UNL1        0.0986
     10 C         -16.2208   -8.6362   19.7341 C.2     1  UNL1        0.0183
     11 C         -15.4916   -7.4874   19.1029 C.2     1  UNL1        0.0037
     12 C         -14.1091   -7.3674   18.5335 C.3     1  UNL1        0.0572
     13 C         -11.0773   -6.3645   18.2033 C.3     1  UNL1        0.0710
     14 C          -9.9386   -6.5153   19.1681 C.3     1  UNL1        0.0257
     15 C          -9.2558   -7.8191   18.8791 C.3     1  UNL1        0.0690
     16 N          -9.9724   -8.4741   17.7357 N.3     1  UNL1       -0.2971
     17 C         -11.0981   -7.5752   17.3180 C.3     1  UNL1        0.0758
     18 H         -10.3423   -9.3777   18.0310 H       1  UNL1        0.1233
     19 C         -11.3045   -5.0655   18.9181 C.3     1  UNL1        0.0086
     20 C         -10.4749   -3.8644   18.5730 C.3     1  UNL1        0.0005
     21 C         -10.6624   -1.6872   17.1677 C.3     1  UNL1        0.0000
     22 C         -11.1390   -2.5473   18.3004 C.3     1  UNL1        0.0000
     23 C         -12.2797   -2.0903   19.1606 C.3     1  UNL1        0.0000
@<TRIPOS>BOND
     1    21    22    1
     2    22    23    1
     3    22    20    1
     4    20    19    1
     5    19    13    1
     6    13     1    1
     7     1     2    2
     8     1     3    1
     9     3     4    2
    10     4     5    1
    11     5     6    1
    12     5     7    2
    13     7     8    1
    14     8     9    2
    15     9    10    1
    16    10    11    2
    17    11    12    1
    18    13    14    1
    19    14    15    1
    20    15    16    1
    21    16    17    1
    22    17    13    1
    23    12     3    1
    24    11     7    1
    25    16    18    1
@<TRIPOS>MOLECULE
*****
 23 25 0 0 0
SMALL
GASTEIGER

@<TRIPOS>ATOM
      1 C          -6.8961  -19.3085   22.2456 C.2     1  UNL1        0.1700
      2 O          -6.4656  -20.6980   21.8803 O.2     1  UNL1       -0.2916
      3 C          -8.3416  -18.9203   22.1456 C.2     1  UNL1        0.0192
      4 C          -8.9072  -18.4664   20.8326 C.2     1  UNL1        0.0301
      5 C         -10.3527  -18.0782   20.7326 C.2     1  UNL1        0.1571
      6 F         -10.9182  -17.6242   19.4195 F       1  UNL1       -0.2026
      7 C         -11.2326  -18.1442   21.9456 C.2     1  UNL1        0.1050
      8 N         -12.6842  -17.8270   22.1510 N.2     1  UNL1       -0.2419
      9 C         -13.0157  -18.0849   23.5909 C.2     1  UNL1        0.0986
     10 C         -11.7691  -18.5616   24.2755 C.2     1  UNL1        0.0183
     11 C         -10.6670  -18.5982   23.2586 C.2     1  UNL1        0.0037
     12 C          -9.2215  -18.9863   23.3586 C.3     1  UNL1        0.0572
     13 C          -5.8812  -18.3068   22.7110 C.3     1  UNL1        0.0710
     14 C          -4.6605  -17.5329   23.1123 C.3     1  UNL1        0.0257
     15 C          -5.1025  -16.1746   23.5700 C.3     1  UNL1        0.0690
     16 N          -6.5964  -16.1090   23.4516 N.3     1  UNL1       -0.2971
     17 C          -7.0777  -17.4268   22.9207 C.3     1  UNL1        0.0758
     18 H          -6.8603  -15.3605   22.8108 H       1  UNL1        0.1233
     19 C          -4.8969  -19.3963   22.4040 C.3     1  UNL1        0.0086
     20 C          -3.5946  -19.0646   21.7377 C.3     1  UNL1        0.0005
     21 C          -2.7409  -18.3189   19.3999 C.3     1  UNL1        0.0000
     22 C          -3.4100  -19.3375   20.2743 C.3     1  UNL1        0.0000
     23 C          -3.8945  -20.6292   19.6853 C.3     1  UNL1        0.0000
@<TRIPOS>BOND
     1    21    22    1
     2    22    23    1
     3    22    20    1
     4    20    19    1
     5    19    13    1
     6    13     1    1
     7     1     2    2
     8     1     3    1
     9     3     4    2
    10     4     5    1
    11     5     6    1
    12     5     7    2
    13     7     8    1
    14     8     9    2
    15     9    10    1
    16    10    11    2
    17    11    12    1
    18    13    14    1
    19    14    15    1
    20    15    16    1
    21    16    17    1
    22    17    13    1
    23    12     3    1
    24    11     7    1
    25    16    18    1
