@<TRIPOS>MOLECULE
*****
 26 28 0 0 0
SMALL
GASTEIGER

@<TRIPOS>ATOM
      1 N          -7.8957  -17.9048   21.5838 N.3     1  UNL1       -0.1550
      2 C          -6.5624  -18.5595   21.3751 C.3     1  UNL1        0.0966
      3 C          -5.5006  -18.7495   22.4174 C.3     1  UNL1        0.0362
      4 C          -4.3387  -19.4466   21.7739 C.3     1  UNL1        0.0701
      5 N          -4.6825  -19.6875   20.3338 N.3     1  UNL1       -0.2963
      6 C          -6.0568  -19.1392   20.0873 C.3     1  UNL1        0.0865
      7 H          -4.6688  -20.6883   20.1373 H       1  UNL1        0.1233
      8 S          -9.1572  -18.6625   21.2927 S.O2    1  UNL1        0.0424
      9 O          -9.5832  -17.5866   20.3383 O.2     1  UNL1       -0.1573
     10 O          -8.7311  -19.7384   22.2471 O.2     1  UNL1       -0.1573
     11 C         -11.2847  -19.0187   19.8447 C.3     1  UNL1        0.0270
     12 C         -10.4185  -19.4202   21.0017 C.3     1  UNL1        0.1460
     13 C         -10.8138  -20.5795   21.8676 C.3     1  UNL1        0.0270
     14 C          -7.9676  -16.4923   22.0836 C.3     1  UNL1        0.1217
     15 C          -7.6757  -16.1906   23.5237 C.ar    1  UNL1       -0.0045
     16 C          -6.3201  -15.6896   23.9252 C.ar    1  UNL1       -0.0029
     17 C          -6.0282  -15.3879   25.3652 C.ar    1  UNL1       -0.0003
     18 C          -7.0920  -15.5871   26.4038 C.ar    1  UNL1       -0.0000
     19 C          -8.4477  -16.0881   26.0023 C.ar    1  UNL1       -0.0003
     20 C          -8.7395  -16.3898   24.5623 C.ar    1  UNL1       -0.0026
     21 C         -10.0952  -16.8908   24.1608 C.ar    1  UNL1       -0.0003
     22 C         -10.6268  -18.1661   24.7448 C.ar    1  UNL1       -0.0000
     23 C         -11.9824  -18.6670   24.3434 C.ar    1  UNL1       -0.0000
     24 C         -12.8066  -17.8927   23.3578 C.ar    1  UNL1       -0.0000
     25 C         -12.2750  -16.6175   22.7737 C.ar    1  UNL1       -0.0000
     26 C         -10.9193  -16.1165   23.1753 C.ar    1  UNL1       -0.0000
@<TRIPOS>BOND
     1    11    12    1
     2    12    13    1
     3    12     8    1
     4     8     9    2
     5     8    10    2
     6     8     1    1
     7     1    14    1
     8    14    15    1
     9    15    16   ar
    10    16    17   ar
    11    17    18   ar
    12    18    19   ar
    13    19    20   ar
    14    20    21    1
    15    21    22   ar
    16    22    23   ar
    17    23    24   ar
    18    24    25   ar
    19    25    26   ar
    20     2     1    1
    21     2     3    1
    22     3     4    1
    23     4     5    1
    24     5     6    1
    25    20    15   ar
    26    26    21   ar
    27     6     2    1
    28     5     7    1
@<TRIPOS>MOLECULE
*****
 26 28 0 0 0
SMALL
GASTEIGER

@<TRIPOS>ATOM
      1 N          -8.1400  -17.7957   21.4795 N.3     1  UNL1       -0.1550
      2 C          -9.4601  -18.2643   20.9431 C.3     1  UNL1        0.0966
      3 C         -10.0816  -19.6086   21.1812 C.3     1  UNL1        0.0362
      4 C         -11.3960  -19.6460   20.4596 C.3     1  UNL1        0.0701
      5 N         -11.5870  -18.3248   19.7755 N.3     1  UNL1       -0.2963
      6 C         -10.3905  -17.4709   20.0743 C.3     1  UNL1        0.0865
      7 H         -12.4313  -17.8724   20.1259 H       1  UNL1        0.1233
      8 S          -6.9671  -18.7304   21.5068 S.O2    1  UNL1        0.0424
      9 O          -6.4956  -18.1771   20.1948 O.2     1  UNL1       -0.1573
     10 O          -7.4386  -19.2837   22.8188 O.2     1  UNL1       -0.1573
     11 C          -5.7840  -20.8816   20.6567 C.3     1  UNL1        0.0270
     12 C          -5.7942  -19.6650   21.5342 C.3     1  UNL1        0.1460
     13 C          -4.6315  -19.3831   22.4389 C.3     1  UNL1        0.0270
     14 C          -7.9928  -16.3925   21.9887 C.3     1  UNL1        0.1217
     15 C          -7.6802  -16.1485   23.4354 C.ar    1  UNL1       -0.0045
     16 C          -6.3118  -15.6856   23.8392 C.ar    1  UNL1       -0.0029
     17 C          -5.9992  -15.4416   25.2858 C.ar    1  UNL1       -0.0003
     18 C          -7.0549  -15.6606   26.3286 C.ar    1  UNL1       -0.0000
     19 C          -8.4233  -16.1236   25.9248 C.ar    1  UNL1       -0.0003
     20 C          -8.7359  -16.3675   24.4782 C.ar    1  UNL1       -0.0026
     21 C         -10.1044  -16.8305   24.0743 C.ar    1  UNL1       -0.0003
     22 C         -10.5972  -18.1800   24.5055 C.ar    1  UNL1       -0.0000
     23 C         -11.9656  -18.6430   24.1016 C.ar    1  UNL1       -0.0000
     24 C         -12.8412  -17.7565   23.2665 C.ar    1  UNL1       -0.0000
     25 C         -12.3484  -16.4069   22.8353 C.ar    1  UNL1       -0.0000
     26 C         -10.9800  -15.9440   23.2392 C.ar    1  UNL1       -0.0000
@<TRIPOS>BOND
     1    11    12    1
     2    12    13    1
     3    12     8    1
     4     8     9    2
     5     8    10    2
     6     8     1    1
     7     1    14    1
     8    14    15    1
     9    15    16   ar
    10    16    17   ar
    11    17    18   ar
    12    18    19   ar
    13    19    20   ar
    14    20    21    1
    15    21    22   ar
    16    22    23   ar
    17    23    24   ar
    18    24    25   ar
    19    25    26   ar
    20     2     1    1
    21     2     3    1
    22     3     4    1
    23     4     5    1
    24     5     6    1
    25    20    15   ar
    26    26    21   ar
    27     6     2    1
    28     5     7    1
@<TRIPOS>MOLECULE
*****
 26 28 0 0 0
SMALL
GASTEIGER

@<TRIPOS>ATOM
      1 N          -9.1167  -17.4176   22.6982 N.3     1  UNL1       -0.1550
      2 C          -9.3661  -18.6296   23.5459 C.3     1  UNL1        0.0966
      3 C          -8.9492  -20.0335   23.2214 C.3     1  UNL1        0.0362
      4 C          -9.4015  -20.9222   24.3420 C.3     1  UNL1        0.0701
      5 N         -10.0980  -20.0674   25.3591 N.3     1  UNL1       -0.2963
      6 C         -10.0760  -18.6506   24.8671 C.3     1  UNL1        0.0865
      7 H          -9.6133  -20.1305   26.2544 H       1  UNL1        0.1233
      8 S         -10.1851  -16.9179   21.7713 S.O2    1  UNL1        0.0424
      9 O          -9.5729  -17.6971   20.6454 O.2     1  UNL1       -0.1573
     10 O         -10.7973  -16.1386   22.8973 O.2     1  UNL1       -0.1573
     11 C         -12.6879  -16.7836   21.0872 C.3     1  UNL1        0.0270
     12 C         -11.2535  -16.4181   20.8446 C.3     1  UNL1        0.1460
     13 C         -10.8874  -15.5530   19.6753 C.3     1  UNL1        0.0270
     14 C          -7.7991  -16.7052   22.7772 C.3     1  UNL1        0.1217
     15 C          -7.2826  -16.2282   24.1023 C.ar    1  UNL1       -0.0045
     16 C          -8.2200  -15.5996   25.0903 C.ar    1  UNL1       -0.0029
     17 C          -7.7035  -15.1227   26.4153 C.ar    1  UNL1       -0.0003
     18 C          -6.2497  -15.2742   26.7523 C.ar    1  UNL1       -0.0000
     19 C          -5.3124  -15.9027   25.7642 C.ar    1  UNL1       -0.0003
     20 C          -5.8288  -16.3797   24.4392 C.ar    1  UNL1       -0.0026
     21 C          -4.8915  -17.0083   23.4511 C.ar    1  UNL1       -0.0003
     22 C          -3.6254  -16.3027   23.0647 C.ar    1  UNL1       -0.0000
     23 C          -2.6881  -16.9312   22.0766 C.ar    1  UNL1       -0.0000
     24 C          -3.0168  -18.2654   21.4749 C.ar    1  UNL1       -0.0000
     25 C          -4.2829  -18.9709   21.8612 C.ar    1  UNL1       -0.0000
     26 C          -5.2202  -18.3424   22.8494 C.ar    1  UNL1       -0.0000
@<TRIPOS>BOND
     1    11    12    1
     2    12    13    1
     3    12     8    1
     4     8     9    2
     5     8    10    2
     6     8     1    1
     7     1    14    1
     8    14    15    1
     9    15    16   ar
    10    16    17   ar
    11    17    18   ar
    12    18    19   ar
    13    19    20   ar
    14    20    21    1
    15    21    22   ar
    16    22    23   ar
    17    23    24   ar
    18    24    25   ar
    19    25    26   ar
    20     2     1    1
    21     2     3    1
    22     3     4    1
    23     4     5    1
    24     5     6    1
    25    20    15   ar
    26    26    21   ar
    27     6     2    1
    28     5     7    1
@<TRIPOS>MOLECULE
*****
 26 28 0 0 0
SMALL
GASTEIGER

@<TRIPOS>ATOM
      1 N          -9.2054  -17.7842   22.3662 N.3     1  UNL1       -0.1550
      2 C          -9.4544  -18.8398   23.4024 C.3     1  UNL1        0.0966
      3 C          -9.2061  -20.3102   23.2404 C.3     1  UNL1        0.0362
      4 C          -9.5936  -20.9895   24.5204 C.3     1  UNL1        0.0701
      5 N         -10.0814  -19.9389   25.4734 N.3     1  UNL1       -0.2963
      6 C          -9.9954  -18.6103   24.7824 C.3     1  UNL1        0.0865
      7 H          -9.4977  -19.9324   26.3099 H       1  UNL1        0.1233
      8 S         -10.3616  -17.0781   21.7220 S.O2    1  UNL1        0.0424
      9 O         -10.1476  -17.8723   20.4676 O.2     1  UNL1       -0.1573
     10 O         -10.5755  -16.2840   22.9764 O.2     1  UNL1       -0.1573
     11 C         -12.7889  -16.1602   21.8452 C.3     1  UNL1        0.0270
     12 C         -11.5176  -16.3721   21.0778 C.3     1  UNL1        0.1460
     13 C         -11.4024  -15.8780   19.6663 C.3     1  UNL1        0.0270
     14 C          -7.8004  -17.4346   21.9742 C.3     1  UNL1        0.1217
     15 C          -6.8293  -16.9555   23.0122 C.ar    1  UNL1       -0.0045
     16 C          -7.2430  -15.9022   23.9968 C.ar    1  UNL1       -0.0029
     17 C          -6.2719  -15.4231   25.0348 C.ar    1  UNL1       -0.0003
     18 C          -4.8872  -15.9973   25.0882 C.ar    1  UNL1       -0.0000
     19 C          -4.4735  -17.0505   24.1035 C.ar    1  UNL1       -0.0003
     20 C          -5.4446  -17.5296   23.0656 C.ar    1  UNL1       -0.0026
     21 C          -5.0309  -18.5829   22.0809 C.ar    1  UNL1       -0.0003
     22 C          -3.6367  -18.5863   21.5277 C.ar    1  UNL1       -0.0000
     23 C          -3.2230  -19.6395   20.5430 C.ar    1  UNL1       -0.0000
     24 C          -4.2036  -20.6894   20.1115 C.ar    1  UNL1       -0.0000
     25 C          -5.5979  -20.6860   20.6647 C.ar    1  UNL1       -0.0000
     26 C          -6.0115  -19.6327   21.6494 C.ar    1  UNL1       -0.0000
@<TRIPOS>BOND
     1    11    12    1
     2    12    13    1
     3    12     8    1
     4     8     9    2
     5     8    10    2
     6     8     1    1
     7     1    14    1
     8    14    15    1
     9    15    16   ar
    10    16    17   ar
    11    17    18   ar
    12    18    19   ar
    13    19    20   ar
    14    20    21    1
    15    21    22   ar
    16    22    23   ar
    17    23    24   ar
    18    24    25   ar
    19    25    26   ar
    20     2     1    1
    21     2     3    1
    22     3     4    1
    23     4     5    1
    24     5     6    1
    25    20    15   ar
    26    26    21   ar
    27     6     2    1
    28     5     7    1
@<TRIPOS>MOLECULE
*****
 26 28 0 0 0
SMALL
GASTEIGER

@<TRIPOS>ATOM
      1 N          -8.2229  -17.3325   22.2530 N.3     1  UNL1       -0.1550
      2 C          -7.5774  -18.5215   21.6053 C.3     1  UNL1        0.0966
      3 C          -6.3882  -19.2723   22.1267 C.3     1  UNL1        0.0362
      4 C          -6.0837  -20.3834   21.1661 C.3     1  UNL1        0.0701
      5 N          -7.0848  -20.3192   20.0509 N.3     1  UNL1       -0.2963
      6 C          -8.0080  -19.1685   20.3223 C.3     1  UNL1        0.0865
      7 H          -7.6171  -21.1885   20.0130 H       1  UNL1        0.1233
      8 S          -9.7097  -17.3003   22.4493 S.O2    1  UNL1        0.0424
      9 O          -9.8159  -16.1773   21.4607 O.2     1  UNL1       -0.1573
     10 O          -9.6034  -18.4233   23.4380 O.2     1  UNL1       -0.1573
     11 C         -11.9613  -16.0063   22.3764 C.3     1  UNL1        0.0270
     12 C         -11.1964  -17.2681   22.6457 C.3     1  UNL1        0.1460
     13 C         -11.9181  -18.4979   23.1112 C.3     1  UNL1        0.0270
     14 C          -7.3815  -16.1756   22.7045 C.3     1  UNL1        0.1217
     15 C          -7.1660  -15.9313   24.1687 C.ar    1  UNL1       -0.0045
     16 C          -8.3287  -15.5829   25.0501 C.ar    1  UNL1       -0.0029
     17 C          -8.1132  -15.3386   26.5142 C.ar    1  UNL1       -0.0003
     18 C          -6.7350  -15.4427   27.0971 C.ar    1  UNL1       -0.0000
     19 C          -5.5723  -15.7911   26.2157 C.ar    1  UNL1       -0.0003
     20 C          -5.7878  -16.0354   24.7516 C.ar    1  UNL1       -0.0026
     21 C          -4.6251  -16.3839   23.8702 C.ar    1  UNL1       -0.0003
     22 C          -4.0474  -17.7678   23.9029 C.ar    1  UNL1       -0.0000
     23 C          -2.8848  -18.1162   23.0216 C.ar    1  UNL1       -0.0000
     24 C          -2.2998  -17.0808   22.1074 C.ar    1  UNL1       -0.0000
     25 C          -2.8775  -15.6968   22.0747 C.ar    1  UNL1       -0.0000
     26 C          -4.0402  -15.3484   22.9561 C.ar    1  UNL1       -0.0000
@<TRIPOS>BOND
     1    11    12    1
     2    12    13    1
     3    12     8    1
     4     8     9    2
     5     8    10    2
     6     8     1    1
     7     1    14    1
     8    14    15    1
     9    15    16   ar
    10    16    17   ar
    11    17    18   ar
    12    18    19   ar
    13    19    20   ar
    14    20    21    1
    15    21    22   ar
    16    22    23   ar
    17    23    24   ar
    18    24    25   ar
    19    25    26   ar
    20     2     1    1
    21     2     3    1
    22     3     4    1
    23     4     5    1
    24     5     6    1
    25    20    15   ar
    26    26    21   ar
    27     6     2    1
    28     5     7    1
@<TRIPOS>MOLECULE
*****
 26 28 0 0 0
SMALL
GASTEIGER

@<TRIPOS>ATOM
      1 N          -9.6641  -17.8261   23.9183 N.3     1  UNL1       -0.1550
      2 C         -11.1307  -17.6512   23.6569 C.3     1  UNL1        0.0966
      3 C         -12.2353  -18.4833   24.2379 C.3     1  UNL1        0.0362
      4 C         -13.5375  -17.9599   23.7086 C.3     1  UNL1        0.0701
      5 N         -13.2378  -16.8043   22.8004 N.3     1  UNL1       -0.2963
      6 C         -11.7503  -16.6135   22.7685 C.3     1  UNL1        0.0865
      7 H         -13.6875  -15.9600   23.1546 H       1  UNL1        0.1233
      8 S          -8.9231  -16.8144   24.7415 S.O2    1  UNL1        0.0424
      9 O          -9.1558  -17.6433   25.9698 O.2     1  UNL1       -0.1573
     10 O          -8.6905  -15.9855   23.5132 O.2     1  UNL1       -0.1573
     11 C          -8.3748  -15.7595   27.0515 C.3     1  UNL1        0.0270
     12 C          -8.1822  -15.8027   25.5646 C.3     1  UNL1        0.1460
     13 C          -7.2487  -14.8344   24.9007 C.3     1  UNL1        0.0270
     14 C          -8.9384  -19.0126   23.3566 C.3     1  UNL1        0.1217
     15 C          -8.9434  -19.2637   21.8777 C.ar    1  UNL1       -0.0045
     16 C         -10.2311  -19.5753   21.1743 C.ar    1  UNL1       -0.0029
     17 C         -10.2361  -19.8264   19.6955 C.ar    1  UNL1       -0.0003
     18 C          -8.9535  -19.7660   18.9202 C.ar    1  UNL1       -0.0000
     19 C          -7.6658  -19.4545   19.6236 C.ar    1  UNL1       -0.0003
     20 C          -7.6608  -19.2034   21.1024 C.ar    1  UNL1       -0.0026
     21 C          -6.3731  -18.8918   21.8059 C.ar    1  UNL1       -0.0003
     22 C          -6.2207  -17.6009   22.5544 C.ar    1  UNL1       -0.0000
     23 C          -4.9331  -17.2893   23.2578 C.ar    1  UNL1       -0.0000
     24 C          -3.7978  -18.2687   23.2129 C.ar    1  UNL1       -0.0000
     25 C          -3.9502  -19.5597   22.4644 C.ar    1  UNL1       -0.0000
     26 C          -5.2379  -19.8712   21.7609 C.ar    1  UNL1       -0.0000
@<TRIPOS>BOND
     1    11    12    1
     2    12    13    1
     3    12     8    1
     4     8     9    2
     5     8    10    2
     6     8     1    1
     7     1    14    1
     8    14    15    1
     9    15    16   ar
    10    16    17   ar
    11    17    18   ar
    12    18    19   ar
    13    19    20   ar
    14    20    21    1
    15    21    22   ar
    16    22    23   ar
    17    23    24   ar
    18    24    25   ar
    19    25    26   ar
    20     2     1    1
    21     2     3    1
    22     3     4    1
    23     4     5    1
    24     5     6    1
    25    20    15   ar
    26    26    21   ar
    27     6     2    1
    28     5     7    1
@<TRIPOS>MOLECULE
*****
 26 28 0 0 0
SMALL
GASTEIGER

@<TRIPOS>ATOM
      1 N          -7.6008  -19.2521   21.4405 N.3     1  UNL1       -0.1550
      2 C          -8.6399  -19.4105   20.3704 C.3     1  UNL1        0.0966
      3 C         -10.0357  -18.8625   20.4088 C.3     1  UNL1        0.0362
      4 C         -10.7241  -19.2580   19.1362 C.3     1  UNL1        0.0701
      5 N          -9.7538  -20.0505   18.3112 N.3     1  UNL1       -0.2963
      6 C          -8.4657  -20.1447   19.0740 C.3     1  UNL1        0.0865
      7 H          -9.5944  -19.5820   17.4193 H       1  UNL1        0.1233
      8 S          -6.1514  -19.4615   21.1154 S.O2    1  UNL1        0.0424
      9 O          -6.1081  -20.6269   22.0587 O.2     1  UNL1       -0.1573
     10 O          -6.1947  -18.2960   20.1721 O.2     1  UNL1       -0.1573
     11 C          -3.6621  -18.7684   21.3853 C.3     1  UNL1        0.0270
     12 C          -4.7021  -19.6708   20.7903 C.3     1  UNL1        0.1460
     13 C          -4.2929  -20.7824   19.8701 C.3     1  UNL1        0.0270
     14 C          -8.0109  -18.8844   22.8357 C.3     1  UNL1        0.1217
     15 C          -7.7080  -17.5160   23.3704 C.ar    1  UNL1       -0.0045
     16 C          -6.2868  -17.0462   23.4672 C.ar    1  UNL1       -0.0029
     17 C          -5.9840  -15.6779   24.0019 C.ar    1  UNL1       -0.0003
     18 C          -7.1024  -14.7793   24.4397 C.ar    1  UNL1       -0.0000
     19 C          -8.5236  -15.2491   24.3430 C.ar    1  UNL1       -0.0003
     20 C          -8.8264  -16.6174   23.8083 C.ar    1  UNL1       -0.0026
     21 C         -10.2477  -17.0872   23.7114 C.ar    1  UNL1       -0.0003
     22 C         -11.1985  -16.4112   22.7686 C.ar    1  UNL1       -0.0000
     23 C         -12.6197  -16.8810   22.6717 C.ar    1  UNL1       -0.0000
     24 C         -13.0902  -18.0268   23.5178 C.ar    1  UNL1       -0.0000
     25 C         -12.1394  -18.7028   24.4607 C.ar    1  UNL1       -0.0000
     26 C         -10.7181  -18.2330   24.5575 C.ar    1  UNL1       -0.0000
@<TRIPOS>BOND
     1    11    12    1
     2    12    13    1
     3    12     8    1
     4     8     9    2
     5     8    10    2
     6     8     1    1
     7     1    14    1
     8    14    15    1
     9    15    16   ar
    10    16    17   ar
    11    17    18   ar
    12    18    19   ar
    13    19    20   ar
    14    20    21    1
    15    21    22   ar
    16    22    23   ar
    17    23    24   ar
    18    24    25   ar
    19    25    26   ar
    20     2     1    1
    21     2     3    1
    22     3     4    1
    23     4     5    1
    24     5     6    1
    25    20    15   ar
    26    26    21   ar
    27     6     2    1
    28     5     7    1
@<TRIPOS>MOLECULE
*****
 26 28 0 0 0
SMALL
GASTEIGER

@<TRIPOS>ATOM
      1 N         -14.2981   -6.2718   18.1034 N.3     1  UNL1       -0.1550
      2 C         -15.0553   -7.5667   18.1008 C.3     1  UNL1        0.0966
      3 C         -16.5265   -7.7273   17.8565 C.3     1  UNL1        0.0362
      4 C         -16.8547   -9.1881   17.9467 C.3     1  UNL1        0.0701
      5 N         -15.5862   -9.9304   18.2467 N.3     1  UNL1       -0.2963
      6 C         -14.4741   -8.9283   18.3419 C.3     1  UNL1        0.0865
      7 H         -15.3894  -10.5958   17.4991 H       1  UNL1        0.1233
      8 S         -14.7725   -5.1273   18.9491 S.O2    1  UNL1        0.0424
      9 O         -15.2075   -4.3951   17.7144 O.2     1  UNL1       -0.1573
     10 O         -14.3374   -5.8595   20.1838 O.2     1  UNL1       -0.1573
     11 C         -14.5277   -3.6414   21.0662 C.3     1  UNL1        0.0270
     12 C         -15.2468   -3.9829   19.7949 C.3     1  UNL1        0.1460
     13 C         -16.4401   -3.1800   19.3693 C.3     1  UNL1        0.0270
     14 C         -13.0667   -6.1214   17.2603 C.3     1  UNL1        0.1217
     15 C         -11.7114   -6.1356   17.9030 C.ar    1  UNL1       -0.0045
     16 C         -11.0583   -7.4413   18.2475 C.ar    1  UNL1       -0.0029
     17 C          -9.7031   -7.4555   18.8902 C.ar    1  UNL1       -0.0003
     18 C          -9.0009   -6.1640   19.1884 C.ar    1  UNL1       -0.0000
     19 C          -9.6539   -4.8583   18.8440 C.ar    1  UNL1       -0.0003
     20 C         -11.0092   -4.8441   18.2013 C.ar    1  UNL1       -0.0026
     21 C         -11.6623   -3.5384   17.8567 C.ar    1  UNL1       -0.0003
     22 C         -11.9742   -2.5473   18.9387 C.ar    1  UNL1       -0.0000
     23 C         -12.6272   -1.2417   18.5942 C.ar    1  UNL1       -0.0000
     24 C         -12.9684   -0.9270   17.1678 C.ar    1  UNL1       -0.0000
     25 C         -12.6565   -1.9180   16.0859 C.ar    1  UNL1       -0.0000
     26 C         -12.0034   -3.2237   16.4304 C.ar    1  UNL1       -0.0000
@<TRIPOS>BOND
     1    11    12    1
     2    12    13    1
     3    12     8    1
     4     8     9    2
     5     8    10    2
     6     8     1    1
     7     1    14    1
     8    14    15    1
     9    15    16   ar
    10    16    17   ar
    11    17    18   ar
    12    18    19   ar
    13    19    20   ar
    14    20    21    1
    15    21    22   ar
    16    22    23   ar
    17    23    24   ar
    18    24    25   ar
    19    25    26   ar
    20     2     1    1
    21     2     3    1
    22     3     4    1
    23     4     5    1
    24     5     6    1
    25    20    15   ar
    26    26    21   ar
    27     6     2    1
    28     5     7    1
@<TRIPOS>MOLECULE
*****
 26 28 0 0 0
SMALL
GASTEIGER

@<TRIPOS>ATOM
      1 N         -14.1560   -4.2597   19.2042 N.3     1  UNL1       -0.1550
      2 C         -15.3469   -3.3992   19.5061 C.3     1  UNL1        0.0966
      3 C         -15.3959   -1.9021   19.4264 C.3     1  UNL1        0.0362
      4 C         -16.7772   -1.4622   19.8118 C.3     1  UNL1        0.0701
      5 N         -17.5820   -2.6876   20.1296 N.3     1  UNL1       -0.2963
      6 C         -16.6980   -3.8846   19.9406 C.3     1  UNL1        0.0865
      7 H         -18.3841   -2.7472   19.5023 H       1  UNL1        0.1233
      8 S         -14.3328   -5.5513   18.4620 S.O2    1  UNL1        0.0424
      9 O         -14.5942   -4.7887   17.1971 O.2     1  UNL1       -0.1573
     10 O         -14.0713   -6.3138   19.7270 O.2     1  UNL1       -0.1573
     11 C         -13.3274   -7.5071   17.0786 C.3     1  UNL1        0.0270
     12 C         -14.5095   -6.8428   17.7200 C.3     1  UNL1        0.1460
     13 C         -15.8683   -7.4700   17.6193 C.3     1  UNL1        0.0270
     14 C         -12.7884   -3.8287   19.6443 C.3     1  UNL1        0.1217
     15 C         -11.6056   -4.0593   18.7510 C.ar    1  UNL1       -0.0045
     16 C         -10.7508   -5.2776   18.9379 C.ar    1  UNL1       -0.0029
     17 C          -9.5681   -5.5082   18.0446 C.ar    1  UNL1       -0.0003
     18 C          -9.2403   -4.5205   16.9643 C.ar    1  UNL1       -0.0000
     19 C         -10.0951   -3.3022   16.7774 C.ar    1  UNL1       -0.0003
     20 C         -11.2778   -3.0716   17.6707 C.ar    1  UNL1       -0.0026
     21 C         -12.1327   -1.8533   17.4838 C.ar    1  UNL1       -0.0003
     22 C         -11.9759   -0.6788   18.4035 C.ar    1  UNL1       -0.0000
     23 C         -12.8308    0.5395   18.2167 C.ar    1  UNL1       -0.0000
     24 C         -13.8425    0.5833   17.1100 C.ar    1  UNL1       -0.0000
     25 C         -13.9993   -0.5912   16.1903 C.ar    1  UNL1       -0.0000
     26 C         -13.1444   -1.8095   16.3772 C.ar    1  UNL1       -0.0000
@<TRIPOS>BOND
     1    11    12    1
     2    12    13    1
     3    12     8    1
     4     8     9    2
     5     8    10    2
     6     8     1    1
     7     1    14    1
     8    14    15    1
     9    15    16   ar
    10    16    17   ar
    11    17    18   ar
    12    18    19   ar
    13    19    20   ar
    14    20    21    1
    15    21    22   ar
    16    22    23   ar
    17    23    24   ar
    18    24    25   ar
    19    25    26   ar
    20     2     1    1
    21     2     3    1
    22     3     4    1
    23     4     5    1
    24     5     6    1
    25    20    15   ar
    26    26    21   ar
    27     6     2    1
    28     5     7    1
