@<TRIPOS>MOLECULE
*****
 33 37 0 0 0
SMALL
GASTEIGER

@<TRIPOS>ATOM
      1 C          -8.2791    5.1349   23.9107 C.3     1  UNL1        0.0952
      2 C          -6.8650    5.0485   24.4033 C.2     1  UNL1        0.2302
      3 O          -6.5255    5.5028   25.7919 O.2     1  UNL1       -0.2745
      4 N          -5.7904    4.5077   23.5073 N.am    1  UNL1       -0.2515
      5 C          -6.1300    4.0534   22.1187 C.2     1  UNL1        0.0695
      6 C          -5.0554    3.5127   21.2227 C.2     1  UNL1        0.0366
      7 C          -3.6412    3.4262   21.7153 C.ar    1  UNL1        0.0993
      8 N          -2.5666    2.8855   20.8193 N.ar    1  UNL1       -0.2265
      9 C          -1.1525    2.7990   21.3119 C.ar    1  UNL1        0.1633
     10 C          -0.8129    3.2533   22.7005 C.ar    1  UNL1        0.1600
     11 N          -1.8875    3.7941   23.5966 N.ar    1  UNL1       -0.2291
     12 C          -3.3017    3.8805   23.1039 C.ar    1  UNL1        0.0985
     13 C          -4.3763    4.4213   23.9999 C.3     1  UNL1        0.1454
     14 N          -0.0779    2.2582   20.4158 N.pl3   1  UNL1       -0.2908
     15 C           0.7109    3.1899   19.5440 C.3     1  UNL1        0.0960
     16 C           1.7855    2.6491   18.6480 C.3     1  UNL1        0.0650
     17 C           2.0713    1.1767   18.6238 C.3     1  UNL1        0.1694
     18 C           1.2825    0.2452   19.4956 C.3     1  UNL1        0.0650
     19 C           0.2079    0.7860   20.3916 C.3     1  UNL1        0.0960
     20 O           3.1458    0.6360   17.7278 O.3     1  UNL1       -0.4768
     21 C           4.1455   -0.3458   18.2636 C.ar    1  UNL1        0.1657
     22 C           4.2135   -1.7324   17.6956 C.ar    1  UNL1        0.0415
     23 C           5.2132   -2.7141   18.2313 C.ar    1  UNL1        0.0329
     24 C           6.1446   -2.3092   19.3351 C.ar    1  UNL1        0.1426
     25 F           7.1442   -3.2909   19.8709 F       1  UNL1       -0.2041
     26 C           6.0765   -0.9226   19.9032 C.ar    1  UNL1        0.0624
     27 C           5.0769    0.0591   19.3674 C.ar    1  UNL1        0.1760
     28 F           5.0088    1.4458   19.9354 F       1  UNL1       -0.2009
     29 N           0.6012    3.1668   23.1931 N.pl3   1  UNL1       -0.3175
     30 H           1.2155    3.9248   23.0616 H       1  UNL1        0.1482
     31 C           1.0795    1.9254   23.8862 C.3     1  UNL1        0.0706
     32 C           1.7520    0.5857   23.8340 C.3     1  UNL1        0.0212
     33 C           1.2352    1.1151   25.1388 C.3     1  UNL1        0.0212
@<TRIPOS>BOND
     1     1     2    1
     2     2     3    2
     3     2     4   am
     4     4     5    1
     5     5     6    2
     6     6     7    1
     7     7     8   ar
     8     8     9   ar
     9     9    14    1
    10    14    15    1
    11    15    16    1
    12    16    17    1
    13    17    20    1
    14    20    21    1
    15    21    22   ar
    16    22    23   ar
    17    23    24   ar
    18    24    25    1
    19    24    26   ar
    20    26    27   ar
    21    27    28    1
    22    17    18    1
    23    18    19    1
    24     9    10   ar
    25    10    29    1
    26    29    31    1
    27    31    32    1
    28    32    33    1
    29    10    11   ar
    30    11    12   ar
    31    12    13    1
    32    13     4    1
    33    12     7   ar
    34    19    14    1
    35    33    31    1
    36    27    21   ar
    37    29    30    1
@<TRIPOS>MOLECULE
*****
 33 37 0 0 0
SMALL
GASTEIGER

@<TRIPOS>ATOM
      1 C           3.8605   -1.4219   17.9123 C.3     1  UNL1        0.0952
      2 C           5.0346   -2.1502   18.4961 C.2     1  UNL1        0.2302
      3 O           6.1124   -2.6783   17.5964 O.2     1  UNL1       -0.2745
      4 N           5.1310   -2.3505   19.9795 N.am    1  UNL1       -0.2515
      5 C           4.0532   -1.8224   20.8792 C.2     1  UNL1        0.0695
      6 C           4.1495   -2.0227   22.3626 C.2     1  UNL1        0.0366
      7 C           5.3237   -2.7510   22.9464 C.ar    1  UNL1        0.0993
      8 N           5.4200   -2.9513   24.4299 N.ar    1  UNL1       -0.2265
      9 C           6.5942   -3.6797   25.0137 C.ar    1  UNL1        0.1633
     10 C           7.6720   -4.2078   24.1140 C.ar    1  UNL1        0.1600
     11 N           7.5757   -4.0075   22.6305 N.ar    1  UNL1       -0.2291
     12 C           6.4015   -3.2791   22.0468 C.ar    1  UNL1        0.0985
     13 C           6.3051   -3.0789   20.5633 C.3     1  UNL1        0.1454
     14 N           6.6905   -3.8799   26.4971 N.pl3   1  UNL1       -0.2908
     15 C           7.0487   -2.7273   27.3878 C.3     1  UNL1        0.0960
     16 C           7.1451   -2.9276   28.8713 C.3     1  UNL1        0.0650
     17 C           6.8832   -4.2804   29.4640 C.3     1  UNL1        0.1694
     18 C           6.5250   -5.4329   28.5733 C.3     1  UNL1        0.0650
     19 C           6.4287   -5.2327   27.0899 C.3     1  UNL1        0.0960
     20 O           6.9796   -4.4807   30.9474 O.3     1  UNL1       -0.4768
     21 C           6.9271   -3.2982   31.8689 C.ar    1  UNL1        0.1657
     22 C           5.6032   -2.7646   32.3297 C.ar    1  UNL1        0.0415
     23 C           5.5507   -1.5821   33.2511 C.ar    1  UNL1        0.0329
     24 C           6.8223   -0.9332   33.7116 C.ar    1  UNL1        0.1426
     25 F           6.7699    0.2493   34.6330 F       1  UNL1       -0.2041
     26 C           8.1463   -1.4668   33.2507 C.ar    1  UNL1        0.0624
     27 C           8.1987   -2.6492   32.3293 C.ar    1  UNL1        0.1760
     28 F           9.5227   -3.1828   31.8684 F       1  UNL1       -0.2009
     29 N           8.8462   -4.9361   24.6978 N.pl3   1  UNL1       -0.3175
     30 H           9.5696   -4.4324   25.1360 H       1  UNL1        0.1482
     31 C           8.9181   -6.4321   24.6138 C.3     1  UNL1        0.0706
     32 C           9.5023   -7.6725   24.0054 C.3     1  UNL1        0.0212
     33 C           8.4584   -7.7828   25.0768 C.3     1  UNL1        0.0212
@<TRIPOS>BOND
     1     1     2    1
     2     2     3    2
     3     2     4   am
     4     4     5    1
     5     5     6    2
     6     6     7    1
     7     7     8   ar
     8     8     9   ar
     9     9    14    1
    10    14    15    1
    11    15    16    1
    12    16    17    1
    13    17    20    1
    14    20    21    1
    15    21    22   ar
    16    22    23   ar
    17    23    24   ar
    18    24    25    1
    19    24    26   ar
    20    26    27   ar
    21    27    28    1
    22    17    18    1
    23    18    19    1
    24     9    10   ar
    25    10    29    1
    26    29    31    1
    27    31    32    1
    28    32    33    1
    29    10    11   ar
    30    11    12   ar
    31    12    13    1
    32    13     4    1
    33    12     7   ar
    34    19    14    1
    35    33    31    1
    36    27    21   ar
    37    29    30    1
@<TRIPOS>MOLECULE
*****
 33 37 0 0 0
SMALL
GASTEIGER

@<TRIPOS>ATOM
      1 C          -2.5195    4.1806   21.7884 C.3     1  UNL1        0.0952
      2 C          -1.7961    3.3779   20.7481 C.2     1  UNL1        0.2302
      3 O          -2.2252    3.4502   19.3126 O.2     1  UNL1       -0.2745
      4 N          -0.6436    2.5028   21.1432 N.am    1  UNL1       -0.2515
      5 C          -0.2145    2.4305   22.5786 C.2     1  UNL1        0.0695
      6 C           0.9380    1.5555   22.9737 C.2     1  UNL1        0.0366
      7 C           1.6613    0.7528   21.9334 C.ar    1  UNL1        0.0993
      8 N           2.8138   -0.1223   22.3285 N.ar    1  UNL1       -0.2265
      9 C           3.5372   -0.9250   21.2881 C.ar    1  UNL1        0.1633
     10 C           3.1081   -0.8526   19.8526 C.ar    1  UNL1        0.1600
     11 N           1.9556    0.0224   19.4575 N.ar    1  UNL1       -0.2291
     12 C           1.2322    0.8251   20.4979 C.ar    1  UNL1        0.0985
     13 C           0.0797    1.7001   20.1028 C.3     1  UNL1        0.1454
     14 N           4.6897   -1.8000   21.6832 N.pl3   1  UNL1       -0.2908
     15 C           4.4363   -3.1087   22.3712 C.3     1  UNL1        0.0960
     16 C           5.5888   -3.9837   22.7663 C.3     1  UNL1        0.0650
     17 C           6.9946   -3.5501   22.4734 C.3     1  UNL1        0.1694
     18 C           7.2479   -2.2414   21.7855 C.3     1  UNL1        0.0650
     19 C           6.0954   -1.3664   21.3904 C.3     1  UNL1        0.0960
     20 O           8.1471   -4.4251   22.8685 O.3     1  UNL1       -0.4768
     21 C           8.0204   -5.3461   24.0458 C.ar    1  UNL1        0.1657
     22 C           7.6196   -4.8012   25.3846 C.ar    1  UNL1        0.0415
     23 C           7.4929   -5.7222   26.5618 C.ar    1  UNL1        0.0329
     24 C           7.7670   -7.1881   26.4001 C.ar    1  UNL1        0.1426
     25 F           7.6403   -8.1090   27.5773 F       1  UNL1       -0.2041
     26 C           8.1678   -7.7329   25.0612 C.ar    1  UNL1        0.0624
     27 C           8.2945   -6.8119   23.8841 C.ar    1  UNL1        0.1760
     28 F           8.6953   -7.3568   22.5452 F       1  UNL1       -0.2009
     29 N           3.8314   -1.6553   18.8122 N.pl3   1  UNL1       -0.3175
     30 H           4.2799   -1.2003   18.0632 H       1  UNL1        0.1482
     31 C           3.8716   -3.1515   18.9131 C.3     1  UNL1        0.0706
     32 C           3.1697   -4.4574   19.1408 C.3     1  UNL1        0.0212
     33 C           4.6430   -4.4368   18.8600 C.3     1  UNL1        0.0212
@<TRIPOS>BOND
     1     1     2    1
     2     2     3    2
     3     2     4   am
     4     4     5    1
     5     5     6    2
     6     6     7    1
     7     7     8   ar
     8     8     9   ar
     9     9    14    1
    10    14    15    1
    11    15    16    1
    12    16    17    1
    13    17    20    1
    14    20    21    1
    15    21    22   ar
    16    22    23   ar
    17    23    24   ar
    18    24    25    1
    19    24    26   ar
    20    26    27   ar
    21    27    28    1
    22    17    18    1
    23    18    19    1
    24     9    10   ar
    25    10    29    1
    26    29    31    1
    27    31    32    1
    28    32    33    1
    29    10    11   ar
    30    11    12   ar
    31    12    13    1
    32    13     4    1
    33    12     7   ar
    34    19    14    1
    35    33    31    1
    36    27    21   ar
    37    29    30    1
@<TRIPOS>MOLECULE
*****
 33 37 0 0 0
SMALL
GASTEIGER

@<TRIPOS>ATOM
      1 C           1.9258    4.6579   36.5208 C.3     1  UNL1        0.0952
      2 C           2.0525    3.3779   35.7491 C.2     1  UNL1        0.2302
      3 O           2.3813    2.1008   36.4638 O.2     1  UNL1       -0.2745
      4 N           1.8503    3.3750   34.2628 N.am    1  UNL1       -0.2515
      5 C           1.5214    4.6522   33.5482 C.2     1  UNL1        0.0695
      6 C           1.3192    4.6493   32.0619 C.2     1  UNL1        0.0366
      7 C           1.4459    3.3693   31.2902 C.ar    1  UNL1        0.0993
      8 N           1.2437    3.3664   29.8039 N.ar    1  UNL1       -0.2265
      9 C           1.3704    2.0865   29.0322 C.ar    1  UNL1        0.1633
     10 C           1.6993    0.8092   29.7468 C.ar    1  UNL1        0.1600
     11 N           1.9015    0.8121   31.2332 N.ar    1  UNL1       -0.2291
     12 C           1.7748    2.0922   32.0048 C.ar    1  UNL1        0.0985
     13 C           1.9770    2.0951   33.4911 C.3     1  UNL1        0.1454
     14 N           1.1682    2.0836   27.5459 N.pl3   1  UNL1       -0.2908
     15 C           2.1877    2.7211   26.6491 C.3     1  UNL1        0.0960
     16 C           1.9855    2.7182   25.1628 C.3     1  UNL1        0.0650
     17 C           0.7638    2.0779   24.5733 C.3     1  UNL1        0.1694
     18 C          -0.2556    1.4404   25.4701 C.3     1  UNL1        0.0650
     19 C          -0.0535    1.4433   26.9564 C.3     1  UNL1        0.0960
     20 O           0.5616    2.0750   23.0870 O.3     1  UNL1       -0.4768
     21 C           1.1455    0.9735   22.2528 C.ar    1  UNL1        0.1657
     22 C           2.3220    0.1926   22.7587 C.ar    1  UNL1        0.0415
     23 C           2.9059   -0.9089   21.9245 C.ar    1  UNL1        0.0329
     24 C           2.3133   -1.2294   20.5843 C.ar    1  UNL1        0.1426
     25 F           2.8972   -2.3308   19.7501 F       1  UNL1       -0.2041
     26 C           1.1368   -0.4484   20.0784 C.ar    1  UNL1        0.0624
     27 C           0.5529    0.6530   20.9126 C.ar    1  UNL1        0.1760
     28 F          -0.6236    1.4340   20.4066 F       1  UNL1       -0.2009
     29 N           1.8260   -0.4707   28.9752 N.pl3   1  UNL1       -0.3175
     30 H           1.1204   -1.1545   29.0367 H       1  UNL1        0.1482
     31 C           3.0278   -0.7090   28.1097 C.3     1  UNL1        0.0706
     32 C           3.6199   -1.0576   26.7763 C.3     1  UNL1        0.0212
     33 C           4.5172   -0.7729   27.9441 C.3     1  UNL1        0.0212
@<TRIPOS>BOND
     1     1     2    1
     2     2     3    2
     3     2     4   am
     4     4     5    1
     5     5     6    2
     6     6     7    1
     7     7     8   ar
     8     8     9   ar
     9     9    14    1
    10    14    15    1
    11    15    16    1
    12    16    17    1
    13    17    20    1
    14    20    21    1
    15    21    22   ar
    16    22    23   ar
    17    23    24   ar
    18    24    25    1
    19    24    26   ar
    20    26    27   ar
    21    27    28    1
    22    17    18    1
    23    18    19    1
    24     9    10   ar
    25    10    29    1
    26    29    31    1
    27    31    32    1
    28    32    33    1
    29    10    11   ar
    30    11    12   ar
    31    12    13    1
    32    13     4    1
    33    12     7   ar
    34    19    14    1
    35    33    31    1
    36    27    21   ar
    37    29    30    1
@<TRIPOS>MOLECULE
*****
 33 37 0 0 0
SMALL
GASTEIGER

@<TRIPOS>ATOM
      1 C          -8.0644    5.7758   19.1268 C.3     1  UNL1        0.0952
      2 C          -7.2251    5.6020   20.3578 C.2     1  UNL1        0.2302
      3 O          -7.7258    6.0956   21.6827 O.2     1  UNL1       -0.2745
      4 N          -5.8851    4.9345   20.2637 N.am    1  UNL1       -0.2515
      5 C          -5.3844    4.4409   18.9388 C.2     1  UNL1        0.0695
      6 C          -4.0444    3.7734   18.8448 C.2     1  UNL1        0.0366
      7 C          -3.2051    3.5995   20.0757 C.ar    1  UNL1        0.0993
      8 N          -1.8651    2.9321   19.9817 N.ar    1  UNL1       -0.2265
      9 C          -1.0258    2.7582   21.2126 C.ar    1  UNL1        0.1633
     10 C          -1.5265    3.2518   22.5377 C.ar    1  UNL1        0.1600
     11 N          -2.8665    3.9193   22.6317 N.ar    1  UNL1       -0.2291
     12 C          -3.7058    4.0932   21.4007 C.ar    1  UNL1        0.0985
     13 C          -5.0458    4.7606   21.4947 C.3     1  UNL1        0.1454
     14 N           0.3143    2.0907   21.1186 N.pl3   1  UNL1       -0.2908
     15 C           1.5680    2.9062   21.2337 C.3     1  UNL1        0.0960
     16 C           2.9081    2.2387   21.1397 C.3     1  UNL1        0.0650
     17 C           2.9943    0.7558   20.9306 C.3     1  UNL1        0.1694
     18 C           1.7405   -0.0596   20.8155 C.3     1  UNL1        0.0650
     19 C           0.4005    0.6079   20.9095 C.3     1  UNL1        0.0960
     20 O           4.3343    0.0883   20.8366 O.3     1  UNL1       -0.4768
     21 C           4.4531   -1.2709   20.2132 C.ar    1  UNL1        0.1657
     22 C           4.8571   -1.4035   18.7747 C.ar    1  UNL1        0.0415
     23 C           4.9758   -2.7627   18.1513 C.ar    1  UNL1        0.0329
     24 C           4.6906   -3.9892   18.9664 C.ar    1  UNL1        0.1426
     25 F           4.8094   -5.3484   18.3431 F       1  UNL1       -0.2041
     26 C           4.2866   -3.8565   20.4049 C.ar    1  UNL1        0.0624
     27 C           4.1678   -2.4974   21.0283 C.ar    1  UNL1        0.1760
     28 F           3.7638   -2.3647   22.4668 F       1  UNL1       -0.2009
     29 N          -0.6871    3.0780   23.7687 N.pl3   1  UNL1       -0.3175
     30 H           0.2883    2.9715   23.6884 H       1  UNL1        0.1482
     31 C          -1.3340    3.0664   25.1220 C.3     1  UNL1        0.0706
     32 C          -1.3674    2.5834   26.5418 C.3     1  UNL1        0.0212
     33 C          -2.4209    3.5292   26.0463 C.3     1  UNL1        0.0212
@<TRIPOS>BOND
     1     1     2    1
     2     2     3    2
     3     2     4   am
     4     4     5    1
     5     5     6    2
     6     6     7    1
     7     7     8   ar
     8     8     9   ar
     9     9    14    1
    10    14    15    1
    11    15    16    1
    12    16    17    1
    13    17    20    1
    14    20    21    1
    15    21    22   ar
    16    22    23   ar
    17    23    24   ar
    18    24    25    1
    19    24    26   ar
    20    26    27   ar
    21    27    28    1
    22    17    18    1
    23    18    19    1
    24     9    10   ar
    25    10    29    1
    26    29    31    1
    27    31    32    1
    28    32    33    1
    29    10    11   ar
    30    11    12   ar
    31    12    13    1
    32    13     4    1
    33    12     7   ar
    34    19    14    1
    35    33    31    1
    36    27    21   ar
    37    29    30    1
@<TRIPOS>MOLECULE
*****
 33 37 0 0 0
SMALL
GASTEIGER

@<TRIPOS>ATOM
      1 C          -7.4429    5.9135   22.8276 C.3     1  UNL1        0.0952
      2 C          -6.0447    5.8083   23.3603 C.2     1  UNL1        0.2302
      3 O          -5.6621    6.5401   24.6125 O.2     1  UNL1       -0.2745
      4 N          -5.0290    4.9713   22.6407 N.am    1  UNL1       -0.2515
      5 C          -5.4116    4.2395   21.3885 C.2     1  UNL1        0.0695
      6 C          -4.3959    3.4025   20.6689 C.2     1  UNL1        0.0366
      7 C          -2.9976    3.2973   21.2015 C.ar    1  UNL1        0.0993
      8 N          -1.9819    2.4603   20.4819 N.ar    1  UNL1       -0.2265
      9 C          -0.5837    2.3551   21.0145 C.ar    1  UNL1        0.1633
     10 C          -0.2010    3.0869   22.2668 C.ar    1  UNL1        0.1600
     11 N          -1.2167    3.9239   22.9864 N.ar    1  UNL1       -0.2291
     12 C          -2.6150    4.0291   22.4537 C.ar    1  UNL1        0.0985
     13 C          -3.6307    4.8661   23.1733 C.3     1  UNL1        0.1454
     14 N           0.4320    1.5181   20.2949 N.pl3   1  UNL1       -0.2908
     15 C           0.5361    0.0502   20.5859 C.3     1  UNL1        0.0960
     16 C           1.5518   -0.7868   19.8663 C.3     1  UNL1        0.0650
     17 C           2.4634   -0.1559   18.8557 C.3     1  UNL1        0.1694
     18 C           2.3593    1.3119   18.5649 C.3     1  UNL1        0.0650
     19 C           1.3436    2.1489   19.2845 C.3     1  UNL1        0.0960
     20 O           3.4791   -0.9929   18.1362 O.3     1  UNL1       -0.4768
     21 C           4.4705   -1.8045   18.9162 C.ar    1  UNL1        0.1657
     22 C           5.7810   -1.1986   19.3232 C.ar    1  UNL1        0.0415
     23 C           6.7724   -2.0102   20.1032 C.ar    1  UNL1        0.0329
     24 C           6.4534   -3.4276   20.4763 C.ar    1  UNL1        0.1426
     25 F           7.4448   -4.2392   21.2563 F       1  UNL1       -0.2041
     26 C           5.1429   -4.0335   20.0692 C.ar    1  UNL1        0.0624
     27 C           4.1515   -3.2219   19.2892 C.ar    1  UNL1        0.1760
     28 F           2.8410   -3.8278   18.8822 F       1  UNL1       -0.2009
     29 N           1.1972    2.9817   22.7994 N.pl3   1  UNL1       -0.3175
     30 H           1.8732    3.6500   22.5431 H       1  UNL1        0.1482
     31 C           1.5656    1.8582   23.7226 C.3     1  UNL1        0.0706
     32 C           1.7658    1.3318   25.1129 C.3     1  UNL1        0.0212
     33 C           2.0035    0.4388   23.9313 C.3     1  UNL1        0.0212
@<TRIPOS>BOND
     1     1     2    1
     2     2     3    2
     3     2     4   am
     4     4     5    1
     5     5     6    2
     6     6     7    1
     7     7     8   ar
     8     8     9   ar
     9     9    14    1
    10    14    15    1
    11    15    16    1
    12    16    17    1
    13    17    20    1
    14    20    21    1
    15    21    22   ar
    16    22    23   ar
    17    23    24   ar
    18    24    25    1
    19    24    26   ar
    20    26    27   ar
    21    27    28    1
    22    17    18    1
    23    18    19    1
    24     9    10   ar
    25    10    29    1
    26    29    31    1
    27    31    32    1
    28    32    33    1
    29    10    11   ar
    30    11    12   ar
    31    12    13    1
    32    13     4    1
    33    12     7   ar
    34    19    14    1
    35    33    31    1
    36    27    21   ar
    37    29    30    1
@<TRIPOS>MOLECULE
*****
 33 37 0 0 0
SMALL
GASTEIGER

@<TRIPOS>ATOM
      1 C          -5.8402    5.8629   26.5251 C.3     1  UNL1        0.0952
      2 C          -4.3905    5.4970   26.6448 C.2     1  UNL1        0.2302
      3 O          -3.6445    5.7931   27.9120 O.2     1  UNL1       -0.2745
      4 N          -3.6868    4.8351   25.4974 N.am    1  UNL1       -0.2515
      5 C          -4.4328    4.5391   24.2302 C.2     1  UNL1        0.0695
      6 C          -3.7291    3.8772   23.0827 C.2     1  UNL1        0.0366
      7 C          -2.2794    3.5113   23.2024 C.ar    1  UNL1        0.0993
      8 N          -1.5757    2.8494   22.0550 N.ar    1  UNL1       -0.2265
      9 C          -0.1259    2.4836   22.1746 C.ar    1  UNL1        0.1633
     10 C           0.6202    2.7796   23.4419 C.ar    1  UNL1        0.1600
     11 N          -0.0835    3.4415   24.5893 N.ar    1  UNL1       -0.2291
     12 C          -1.5333    3.8074   24.4696 C.ar    1  UNL1        0.0985
     13 C          -2.2370    4.4693   25.6171 C.3     1  UNL1        0.1454
     14 N           0.5778    1.8217   21.0272 N.pl3   1  UNL1       -0.2908
     15 C           1.3236    2.6522   20.0251 C.3     1  UNL1        0.0960
     16 C           2.0273    1.9903   18.8776 C.3     1  UNL1        0.0650
     17 C           1.9852    0.4979   18.7322 C.3     1  UNL1        0.1694
     18 C           1.2395   -0.3325   19.7343 C.3     1  UNL1        0.0650
     19 C           0.5358    0.3294   20.8818 C.3     1  UNL1        0.0960
     20 O           2.6889   -0.1640   17.5848 O.3     1  UNL1       -0.4768
     21 C           4.0666   -0.7264   17.7737 C.ar    1  UNL1        0.1657
     22 C           5.2650    0.0605   17.3327 C.ar    1  UNL1        0.0415
     23 C           6.6427   -0.5019   17.5216 C.ar    1  UNL1        0.0329
     24 C           6.8220   -1.8513   18.1516 C.ar    1  UNL1        0.1426
     25 F           8.1996   -2.4137   18.3405 F       1  UNL1       -0.2041
     26 C           5.6236   -2.6383   18.5926 C.ar    1  UNL1        0.0624
     27 C           4.2459   -2.0759   18.4037 C.ar    1  UNL1        0.1760
     28 F           3.0475   -2.8629   18.8448 F       1  UNL1       -0.2009
     29 N           2.0699    2.4138   23.5616 N.pl3   1  UNL1       -0.3175
     30 H           2.7643    3.0656   23.3121 H       1  UNL1        0.1482
     31 C           2.4617    1.0548   24.0613 C.3     1  UNL1        0.0706
     32 C           2.7974    0.1358   25.1983 C.3     1  UNL1        0.0212
     33 C           2.8046   -0.3800   23.7898 C.3     1  UNL1        0.0212
@<TRIPOS>BOND
     1     1     2    1
     2     2     3    2
     3     2     4   am
     4     4     5    1
     5     5     6    2
     6     6     7    1
     7     7     8   ar
     8     8     9   ar
     9     9    14    1
    10    14    15    1
    11    15    16    1
    12    16    17    1
    13    17    20    1
    14    20    21    1
    15    21    22   ar
    16    22    23   ar
    17    23    24   ar
    18    24    25    1
    19    24    26   ar
    20    26    27   ar
    21    27    28    1
    22    17    18    1
    23    18    19    1
    24     9    10   ar
    25    10    29    1
    26    29    31    1
    27    31    32    1
    28    32    33    1
    29    10    11   ar
    30    11    12   ar
    31    12    13    1
    32    13     4    1
    33    12     7   ar
    34    19    14    1
    35    33    31    1
    36    27    21   ar
    37    29    30    1
@<TRIPOS>MOLECULE
*****
 33 37 0 0 0
SMALL
GASTEIGER

@<TRIPOS>ATOM
      1 C           2.3936    3.1701   39.1231 C.3     1  UNL1        0.0952
      2 C           2.2875    3.0219   37.6343 C.2     1  UNL1        0.2302
      3 O           1.3014    3.8512   36.8664 O.2     1  UNL1       -0.2745
      4 N           3.1676    2.0443   36.9133 N.am    1  UNL1       -0.2515
      5 C           4.1537    1.2150   37.6812 C.2     1  UNL1        0.0695
      6 C           5.0338    0.2374   36.9602 C.2     1  UNL1        0.0366
      7 C           4.9277    0.0891   35.4714 C.ar    1  UNL1        0.0993
      8 N           5.8078   -0.8885   34.7504 N.ar    1  UNL1       -0.2265
      9 C           5.7018   -1.0367   33.2616 C.ar    1  UNL1        0.1633
     10 C           4.7156   -0.2074   32.4936 C.ar    1  UNL1        0.1600
     11 N           3.8355    0.7702   33.2146 N.ar    1  UNL1       -0.2291
     12 C           3.9416    0.9185   34.7035 C.ar    1  UNL1        0.0985
     13 C           3.0616    1.8961   35.4245 C.3     1  UNL1        0.1454
     14 N           6.5818   -2.0143   32.5406 N.pl3   1  UNL1       -0.2908
     15 C           7.8823   -1.5578   31.9485 C.3     1  UNL1        0.0960
     16 C           8.7623   -2.5354   31.2276 C.3     1  UNL1        0.0650
     17 C           8.3420   -3.9695   31.0987 C.3     1  UNL1        0.1694
     18 C           7.0416   -4.4260   31.6908 C.3     1  UNL1        0.0650
     19 C           6.1615   -3.4484   32.4117 C.3     1  UNL1        0.0960
     20 O           9.2220   -4.9471   30.3777 O.3     1  UNL1       -0.4768
     21 C           8.6902   -5.7075   29.1991 C.ar    1  UNL1        0.1657
     22 C           8.8740   -7.1941   29.1207 C.ar    1  UNL1        0.0415
     23 C           8.3422   -7.9544   27.9420 C.ar    1  UNL1        0.0329
     24 C           7.6265   -7.2281   26.8419 C.ar    1  UNL1        0.1426
     25 F           7.0947   -7.9884   25.6633 F       1  UNL1       -0.2041
     26 C           7.4427   -5.7414   26.9204 C.ar    1  UNL1        0.0624
     27 C           7.9745   -4.9812   28.0990 C.ar    1  UNL1        0.1760
     28 F           7.7907   -3.4945   28.1775 F       1  UNL1       -0.2009
     29 N           4.6096   -0.3556   31.0048 N.pl3   1  UNL1       -0.3175
     30 H           5.4080   -0.5799   30.4743 H       1  UNL1        0.1482
     31 C           3.2869   -0.1622   30.3241 C.3     1  UNL1        0.0706
     32 C           2.3279   -0.5125   29.2252 C.3     1  UNL1        0.0212
     33 C           1.9551    0.5232   30.2441 C.3     1  UNL1        0.0212
@<TRIPOS>BOND
     1     1     2    1
     2     2     3    2
     3     2     4   am
     4     4     5    1
     5     5     6    2
     6     6     7    1
     7     7     8   ar
     8     8     9   ar
     9     9    14    1
    10    14    15    1
    11    15    16    1
    12    16    17    1
    13    17    20    1
    14    20    21    1
    15    21    22   ar
    16    22    23   ar
    17    23    24   ar
    18    24    25    1
    19    24    26   ar
    20    26    27   ar
    21    27    28    1
    22    17    18    1
    23    18    19    1
    24     9    10   ar
    25    10    29    1
    26    29    31    1
    27    31    32    1
    28    32    33    1
    29    10    11   ar
    30    11    12   ar
    31    12    13    1
    32    13     4    1
    33    12     7   ar
    34    19    14    1
    35    33    31    1
    36    27    21   ar
    37    29    30    1
@<TRIPOS>MOLECULE
*****
 33 37 0 0 0
SMALL
GASTEIGER

@<TRIPOS>ATOM
      1 C           6.7076    0.6199   35.5124 C.3     1  UNL1        0.0952
      2 C           5.4405    0.1011   34.8999 C.2     1  UNL1        0.2302
      3 O           4.4269   -0.6004   35.7544 O.2     1  UNL1       -0.2745
      4 N           5.1871    0.2838   33.4328 N.am    1  UNL1       -0.2515
      5 C           6.2008    0.9853   32.5782 C.2     1  UNL1        0.0695
      6 C           5.9473    1.1680   31.1111 C.2     1  UNL1        0.0366
      7 C           4.6802    0.6492   30.4986 C.ar    1  UNL1        0.0993
      8 N           4.4268    0.8319   29.0315 N.ar    1  UNL1       -0.2265
      9 C           3.1597    0.3131   28.4189 C.ar    1  UNL1        0.1633
     10 C           2.1459   -0.3885   29.2735 C.ar    1  UNL1        0.1600
     11 N           2.3994   -0.5712   30.7406 N.ar    1  UNL1       -0.2291
     12 C           3.6666   -0.0523   31.3531 C.ar    1  UNL1        0.0985
     13 C           3.9200   -0.2350   32.8202 C.3     1  UNL1        0.1454
     14 N           2.9062    0.4958   26.9518 N.pl3   1  UNL1       -0.2908
     15 C           2.1613    1.7029   26.4640 C.3     1  UNL1        0.0960
     16 C           1.9078    1.8856   24.9969 C.3     1  UNL1        0.0650
     17 C           2.3994    0.8612   24.0176 C.3     1  UNL1        0.1694
     18 C           3.1443   -0.3459   24.5054 C.3     1  UNL1        0.0650
     19 C           3.3977   -0.5286   25.9725 C.3     1  UNL1        0.0960
     20 O           2.1459    1.0439   22.5505 O.3     1  UNL1       -0.4768
     21 C           2.8984    0.2167   21.5507 C.ar    1  UNL1        0.1657
     22 C           2.2029   -0.8941   20.8210 C.ar    1  UNL1        0.0415
     23 C           2.9555   -1.7213   19.8212 C.ar    1  UNL1        0.0329
     24 C           4.4034   -1.4376   19.5511 C.ar    1  UNL1        0.1426
     25 F           5.1559   -2.2648   18.5513 F       1  UNL1       -0.2041
     26 C           5.0989   -0.3268   20.2809 C.ar    1  UNL1        0.0624
     27 C           4.3464    0.5003   21.2806 C.ar    1  UNL1        0.1760
     28 F           5.0418    1.6112   22.0104 F       1  UNL1       -0.2009
     29 N           0.8788   -0.9073   28.6610 N.pl3   1  UNL1       -0.3175
     30 H           0.8610   -1.8017   28.2500 H       1  UNL1        0.1482
     31 C          -0.3612   -0.0633   28.6746 C.3     1  UNL1        0.0706
     32 C          -1.1267    1.1289   28.1819 C.3     1  UNL1        0.0212
     33 C          -1.7435    0.2062   29.1910 C.3     1  UNL1        0.0212
@<TRIPOS>BOND
     1     1     2    1
     2     2     3    2
     3     2     4   am
     4     4     5    1
     5     5     6    2
     6     6     7    1
     7     7     8   ar
     8     8     9   ar
     9     9    14    1
    10    14    15    1
    11    15    16    1
    12    16    17    1
    13    17    20    1
    14    20    21    1
    15    21    22   ar
    16    22    23   ar
    17    23    24   ar
    18    24    25    1
    19    24    26   ar
    20    26    27   ar
    21    27    28    1
    22    17    18    1
    23    18    19    1
    24     9    10   ar
    25    10    29    1
    26    29    31    1
    27    31    32    1
    28    32    33    1
    29    10    11   ar
    30    11    12   ar
    31    12    13    1
    32    13     4    1
    33    12     7   ar
    34    19    14    1
    35    33    31    1
    36    27    21   ar
    37    29    30    1
