@<TRIPOS>MOLECULE
*****
 18 19 0 0 0
SMALL
GASTEIGER

@<TRIPOS>ATOM
      1 C          -2.3751  -18.5529   20.7387 C.ar    1  UNL1        0.2900
      2 C          -3.2245  -19.2368   19.7088 C.ar    1  UNL1        0.0749
      3 C          -4.5582  -19.8051   20.0938 C.ar    1  UNL1        0.0021
      4 C          -5.0425  -19.6895   21.5087 C.ar    1  UNL1       -0.0204
      5 C          -4.1931  -19.0056   22.5386 C.ar    1  UNL1        0.0021
      6 C          -2.8594  -18.4373   22.1536 C.ar    1  UNL1        0.0749
      7 O          -0.7608  -16.5253   20.5576 O.2     1  UNL1        0.0415
      8 N          -1.0414  -17.9846   20.3537 N.pl3   1  UNL1        0.0809
      9 O           0.0118  -18.8756   19.7647 O.co2   1  UNL1       -0.5760
     10 C          -6.3762  -20.2578   21.8937 C.3     1  UNL1        0.0437
     11 C          -7.6184  -19.4333   21.7296 C.3     1  UNL1        0.0769
     12 N          -8.5397  -19.2248   22.8949 N.3     1  UNL1       -0.2700
     13 C          -9.1096  -20.4071   23.6212 C.3     1  UNL1        0.0894
     14 C         -10.0309  -20.1987   24.7865 C.3     1  UNL1        0.0862
     15 N         -10.3821  -18.8080   25.2255 N.3     1  UNL1       -0.2951
     16 C          -9.8121  -17.6258   24.4992 C.3     1  UNL1        0.0862
     17 C          -8.8909  -17.8342   23.3339 C.3     1  UNL1        0.0894
     18 H         -10.0902  -18.7240   26.1993 H       1  UNL1        0.1233
@<TRIPOS>UNITY_ATOM_ATTR
8 1
charge 1
9 1
charge -1
@<TRIPOS>BOND
     1     7     8    2
     2     8     9    1
     3     8     1    1
     4     1     2   ar
     5     2     3   ar
     6     3     4   ar
     7     4    10    1
     8    10    11    1
     9    11    12    1
    10    12    13    1
    11    13    14    1
    12    14    15    1
    13    15    16    1
    14    16    17    1
    15     4     5   ar
    16     5     6   ar
    17     6     1   ar
    18    17    12    1
    19    15    18    1
@<TRIPOS>MOLECULE
*****
 18 19 0 0 0
SMALL
GASTEIGER

@<TRIPOS>ATOM
      1 C          -4.1438  -19.5374   21.0277 C.ar    1  UNL1        0.2900
      2 C          -5.0911  -20.5200   20.4056 C.ar    1  UNL1        0.0749
      3 C          -6.5306  -20.5436   20.8266 C.ar    1  UNL1        0.0021
      4 C          -7.0229  -19.5847   21.8696 C.ar    1  UNL1       -0.0204
      5 C          -6.0756  -18.6020   22.4917 C.ar    1  UNL1        0.0021
      6 C          -4.6360  -18.5784   22.0708 C.ar    1  UNL1        0.0749
      7 O          -1.6749  -20.2484   21.4132 O.2     1  UNL1        0.0415
      8 N          -2.7043  -19.5137   20.6067 N.pl3   1  UNL1        0.0809
      9 O          -2.2942  -18.7554   19.3793 O.co2   1  UNL1       -0.5760
     10 C          -8.4624  -19.6083   22.2906 C.3     1  UNL1        0.0437
     11 C          -9.1077  -18.3647   22.8262 C.3     1  UNL1        0.0769
     12 N         -10.2915  -17.7710   22.1219 N.3     1  UNL1       -0.2700
     13 C         -10.1310  -16.5209   21.3085 C.3     1  UNL1        0.0894
     14 C         -11.3148  -15.9272   20.6042 C.3     1  UNL1        0.0862
     15 N         -12.6592  -16.5836   20.7132 N.3     1  UNL1       -0.2951
     16 C         -12.8197  -17.8337   21.5265 C.3     1  UNL1        0.0862
     17 C         -11.6358  -18.4274   22.2309 C.3     1  UNL1        0.0894
     18 H         -12.9540  -16.8104   19.7634 H       1  UNL1        0.1233
@<TRIPOS>UNITY_ATOM_ATTR
8 1
charge 1
9 1
charge -1
@<TRIPOS>BOND
     1     7     8    2
     2     8     9    1
     3     8     1    1
     4     1     2   ar
     5     2     3   ar
     6     3     4   ar
     7     4    10    1
     8    10    11    1
     9    11    12    1
    10    12    13    1
    11    13    14    1
    12    14    15    1
    13    15    16    1
    14    16    17    1
    15     4     5   ar
    16     5     6   ar
    17     6     1   ar
    18    17    12    1
    19    15    18    1
@<TRIPOS>MOLECULE
*****
 18 19 0 0 0
SMALL
GASTEIGER

@<TRIPOS>ATOM
      1 C          -4.1867  -19.6046   21.0195 C.ar    1  UNL1        0.2900
      2 C          -5.1993  -20.4601   20.3174 C.ar    1  UNL1        0.0749
      3 C          -6.6264  -20.4651   20.7793 C.ar    1  UNL1        0.0021
      4 C          -7.0409  -19.6146   21.9433 C.ar    1  UNL1       -0.0204
      5 C          -6.0284  -18.7591   22.6453 C.ar    1  UNL1        0.0021
      6 C          -4.6013  -18.7541   22.1834 C.ar    1  UNL1        0.0749
      7 O          -1.7112  -20.3187   21.3535 O.2     1  UNL1        0.0415
      8 N          -2.7596  -19.5996   20.5576 N.pl3   1  UNL1        0.0809
      9 O          -2.3810  -18.8754   19.2998 O.co2   1  UNL1       -0.5760
     10 C          -8.4681  -19.6197   22.4051 C.3     1  UNL1        0.0437
     11 C          -9.2862  -18.3649   22.3266 C.3     1  UNL1        0.0769
     12 N          -8.8394  -17.1315   23.0539 N.3     1  UNL1       -0.2700
     13 C          -9.1297  -16.9773   24.5175 C.3     1  UNL1        0.0894
     14 C          -8.6829  -15.7438   25.2449 C.3     1  UNL1        0.0862
     15 N          -7.9458  -14.6646   24.5086 N.3     1  UNL1       -0.2951
     16 C          -7.6556  -14.8188   23.0451 C.3     1  UNL1        0.0862
     17 C          -8.1024  -16.0523   22.3177 C.3     1  UNL1        0.0894
     18 H          -7.0468  -14.5500   24.9766 H       1  UNL1        0.1233
@<TRIPOS>UNITY_ATOM_ATTR
8 1
charge 1
9 1
charge -1
@<TRIPOS>BOND
     1     7     8    2
     2     8     9    1
     3     8     1    1
     4     1     2   ar
     5     2     3   ar
     6     3     4   ar
     7     4    10    1
     8    10    11    1
     9    11    12    1
    10    12    13    1
    11    13    14    1
    12    14    15    1
    13    15    16    1
    14    16    17    1
    15     4     5   ar
    16     5     6   ar
    17     6     1   ar
    18    17    12    1
    19    15    18    1
@<TRIPOS>MOLECULE
*****
 18 19 0 0 0
SMALL
GASTEIGER

@<TRIPOS>ATOM
      1 C          -6.0510  -19.5844   20.5059 C.ar    1  UNL1        0.2900
      2 C          -7.2317  -19.3562   19.6094 C.ar    1  UNL1        0.0749
      3 C          -8.6131  -19.2914   20.1903 C.ar    1  UNL1        0.0021
      4 C          -8.8139  -19.4548   21.6678 C.ar    1  UNL1       -0.0204
      5 C          -7.6332  -19.6830   22.5643 C.ar    1  UNL1        0.0021
      6 C          -6.2517  -19.7478   21.9834 C.ar    1  UNL1        0.0749
      7 O          -3.9010  -20.9368   19.9598 O.2     1  UNL1        0.0415
      8 N          -4.6696  -19.6492   19.9250 N.pl3   1  UNL1        0.0809
      9 O          -4.0568  -18.4263   19.3093 O.co2   1  UNL1       -0.5760
     10 C         -10.1953  -19.3900   22.2487 C.3     1  UNL1        0.0437
     11 C         -10.6804  -18.1241   22.8905 C.3     1  UNL1        0.0769
     12 N          -9.7266  -16.9915   23.1302 N.3     1  UNL1       -0.2700
     13 C          -9.2012  -16.1955   21.9724 C.3     1  UNL1        0.0894
     14 C          -8.2474  -15.0629   22.2122 C.3     1  UNL1        0.0862
     15 N          -7.8190  -14.7263   23.6098 N.3     1  UNL1       -0.2951
     16 C          -8.3444  -15.5222   24.7675 C.3     1  UNL1        0.0862
     17 C          -9.2982  -16.6548   24.5278 C.3     1  UNL1        0.0894
     18 H          -8.0866  -13.7558   23.7740 H       1  UNL1        0.1233
@<TRIPOS>UNITY_ATOM_ATTR
8 1
charge 1
9 1
charge -1
@<TRIPOS>BOND
     1     7     8    2
     2     8     9    1
     3     8     1    1
     4     1     2   ar
     5     2     3   ar
     6     3     4   ar
     7     4    10    1
     8    10    11    1
     9    11    12    1
    10    12    13    1
    11    13    14    1
    12    14    15    1
    13    15    16    1
    14    16    17    1
    15     4     5   ar
    16     5     6   ar
    17     6     1   ar
    18    17    12    1
    19    15    18    1
@<TRIPOS>MOLECULE
*****
 18 19 0 0 0
SMALL
GASTEIGER

@<TRIPOS>ATOM
      1 C         -16.6459   -9.2894   18.6889 C.ar    1  UNL1        0.2900
      2 C         -17.4437   -8.1744   19.2973 C.ar    1  UNL1        0.0749
      3 C         -16.7951   -6.8494   19.5689 C.ar    1  UNL1        0.0021
      4 C         -15.3486   -6.6395   19.2321 C.ar    1  UNL1       -0.0204
      5 C         -14.5507   -7.7545   18.6237 C.ar    1  UNL1        0.0021
      6 C         -15.1994   -9.0794   18.3521 C.ar    1  UNL1        0.0749
      7 O         -18.5449  -10.6820   17.5915 O.2     1  UNL1        0.0415
      8 N         -17.2946  -10.6143   18.4174 N.pl3   1  UNL1        0.0809
      9 O         -16.6929  -11.8716   18.9716 O.co2   1  UNL1       -0.5760
     10 C         -14.6999   -5.3145   19.5036 C.3     1  UNL1        0.0437
     11 C         -13.3367   -5.2606   20.1271 C.3     1  UNL1        0.0769
     12 N         -12.2221   -4.5364   19.4319 N.3     1  UNL1       -0.2700
     13 C         -12.3656   -3.0805   19.1003 C.3     1  UNL1        0.0894
     14 C         -11.2510   -2.3563   18.4052 C.3     1  UNL1        0.0862
     15 N          -9.9930   -3.0880   18.0416 N.3     1  UNL1       -0.2951
     16 C          -9.8496   -4.5438   18.3731 C.3     1  UNL1        0.0862
     17 C         -10.9642   -5.2680   19.0683 C.3     1  UNL1        0.0894
     18 H          -9.2255   -2.6031   18.5065 H       1  UNL1        0.1233
@<TRIPOS>UNITY_ATOM_ATTR
8 1
charge 1
9 1
charge -1
@<TRIPOS>BOND
     1     7     8    2
     2     8     9    1
     3     8     1    1
     4     1     2   ar
     5     2     3   ar
     6     3     4   ar
     7     4    10    1
     8    10    11    1
     9    11    12    1
    10    12    13    1
    11    13    14    1
    12    14    15    1
    13    15    16    1
    14    16    17    1
    15     4     5   ar
    16     5     6   ar
    17     6     1   ar
    18    17    12    1
    19    15    18    1
@<TRIPOS>MOLECULE
*****
 18 19 0 0 0
SMALL
GASTEIGER

@<TRIPOS>ATOM
      1 C         -11.5859   -5.2074   19.0254 C.ar    1  UNL1        0.2900
      2 C         -11.9931   -6.5964   18.6322 C.ar    1  UNL1        0.0749
      3 C         -13.4229   -7.0272   18.7739 C.ar    1  UNL1        0.0021
      4 C         -14.4455   -6.0690   19.3089 C.ar    1  UNL1       -0.0204
      5 C         -14.0382   -4.6800   19.7021 C.ar    1  UNL1        0.0021
      6 C         -12.6084   -4.2492   19.5604 C.ar    1  UNL1        0.0749
      7 O          -9.7818   -3.7432   17.8628 O.2     1  UNL1        0.0415
      8 N         -10.1561   -4.7766   18.8837 N.pl3   1  UNL1        0.0809
      9 O          -9.1006   -5.3790   19.7627 O.co2   1  UNL1       -0.5760
     10 C         -15.8752   -6.4999   19.4506 C.3     1  UNL1        0.0437
     11 C         -16.6460   -6.9497   18.2450 C.3     1  UNL1        0.0769
     12 N         -17.2115   -8.3380   18.1914 N.3     1  UNL1       -0.2700
     13 C         -16.4819   -9.4710   18.8504 C.3     1  UNL1        0.0894
     14 C         -17.0473  -10.8593   18.7968 C.3     1  UNL1        0.0862
     15 N         -18.3424  -11.1147   18.0842 N.3     1  UNL1       -0.2951
     16 C         -19.0719   -9.9817   17.4253 C.3     1  UNL1        0.0862
     17 C         -18.5064   -8.5934   17.4789 C.3     1  UNL1        0.0894
     18 H         -18.9813  -11.5172   18.7699 H       1  UNL1        0.1233
@<TRIPOS>UNITY_ATOM_ATTR
8 1
charge 1
9 1
charge -1
@<TRIPOS>BOND
     1     7     8    2
     2     8     9    1
     3     8     1    1
     4     1     2   ar
     5     2     3   ar
     6     3     4   ar
     7     4    10    1
     8    10    11    1
     9    11    12    1
    10    12    13    1
    11    13    14    1
    12    14    15    1
    13    15    16    1
    14    16    17    1
    15     4     5   ar
    16     5     6   ar
    17     6     1   ar
    18    17    12    1
    19    15    18    1
@<TRIPOS>MOLECULE
*****
 18 19 0 0 0
SMALL
GASTEIGER

@<TRIPOS>ATOM
      1 C         -11.4116   -6.6168   18.5648 C.ar    1  UNL1        0.2900
      2 C         -12.3379   -5.8229   19.4375 C.ar    1  UNL1        0.0749
      3 C         -13.8052   -5.7793   19.1296 C.ar    1  UNL1        0.0021
      4 C         -14.3464   -6.5296   17.9488 C.ar    1  UNL1       -0.0204
      5 C         -13.4202   -7.3235   17.0761 C.ar    1  UNL1        0.0021
      6 C         -11.9528   -7.3671   17.3841 C.ar    1  UNL1        0.0749
      7 O          -9.2820   -5.4894   19.5361 O.2     1  UNL1        0.0415
      8 N          -9.9442   -6.6605   18.8728 N.pl3   1  UNL1        0.0809
      9 O          -9.1391   -7.8751   18.5175 O.co2   1  UNL1       -0.5760
     10 C         -15.8138   -6.4859   17.6408 C.3     1  UNL1        0.0437
     11 C         -16.4133   -7.4904   16.7019 C.3     1  UNL1        0.0769
     12 N         -17.0984   -8.7092   17.2451 N.3     1  UNL1       -0.2700
     13 C         -18.5425   -8.9621   16.9275 C.3     1  UNL1        0.0894
     14 C         -19.2276  -10.1809   17.4707 C.3     1  UNL1        0.0862
     15 N         -18.4686  -11.1469   18.3315 N.3     1  UNL1       -0.2951
     16 C         -17.0246  -10.8940   18.6491 C.3     1  UNL1        0.0862
     17 C         -16.3395   -9.6752   18.1059 C.3     1  UNL1        0.0894
     18 H         -18.5134  -12.0537   17.8666 H       1  UNL1        0.1233
@<TRIPOS>UNITY_ATOM_ATTR
8 1
charge 1
9 1
charge -1
@<TRIPOS>BOND
     1     7     8    2
     2     8     9    1
     3     8     1    1
     4     1     2   ar
     5     2     3   ar
     6     3     4   ar
     7     4    10    1
     8    10    11    1
     9    11    12    1
    10    12    13    1
    11    13    14    1
    12    14    15    1
    13    15    16    1
    14    16    17    1
    15     4     5   ar
    16     5     6   ar
    17     6     1   ar
    18    17    12    1
    19    15    18    1
@<TRIPOS>MOLECULE
*****
 18 19 0 0 0
SMALL
GASTEIGER

@<TRIPOS>ATOM
      1 C         -18.0990   -7.7638   19.8630 C.ar    1  UNL1        0.2900
      2 C         -17.5423   -6.3920   19.6218 C.ar    1  UNL1        0.0749
      3 C         -16.1103   -6.2260   19.2070 C.ar    1  UNL1        0.0021
      4 C         -15.2352   -7.4318   19.0334 C.ar    1  UNL1       -0.0204
      5 C         -15.7920   -8.8036   19.2746 C.ar    1  UNL1        0.0021
      6 C         -17.2239   -8.9696   19.6894 C.ar    1  UNL1        0.0749
      7 O         -20.0959   -9.3029   20.4903 O.2     1  UNL1        0.0415
      8 N         -19.5310   -7.9298   20.2778 N.pl3   1  UNL1        0.0809
      9 O         -20.3979   -6.7226   20.4801 O.co2   1  UNL1       -0.5760
     10 C         -13.8033   -7.2658   18.6186 C.3     1  UNL1        0.0437
     11 C         -13.3696   -6.0219   17.9014 C.3     1  UNL1        0.0769
     12 N         -12.1098   -5.3194   18.3131 N.3     1  UNL1       -0.2700
     13 C         -10.9491   -6.1091   18.8417 C.3     1  UNL1        0.0894
     14 C          -9.6894   -5.4066   19.2533 C.3     1  UNL1        0.0862
     15 N          -9.5902   -3.9144   19.1364 N.3     1  UNL1       -0.2951
     16 C         -10.7508   -3.1248   18.6079 C.3     1  UNL1        0.0862
     17 C         -12.0106   -3.8273   18.1962 C.3     1  UNL1        0.0894
     18 H          -8.7980   -3.7190   18.5244 H       1  UNL1        0.1233
@<TRIPOS>UNITY_ATOM_ATTR
8 1
charge 1
9 1
charge -1
@<TRIPOS>BOND
     1     7     8    2
     2     8     9    1
     3     8     1    1
     4     1     2   ar
     5     2     3   ar
     6     3     4   ar
     7     4    10    1
     8    10    11    1
     9    11    12    1
    10    12    13    1
    11    13    14    1
    12    14    15    1
    13    15    16    1
    14    16    17    1
    15     4     5   ar
    16     5     6   ar
    17     6     1   ar
    18    17    12    1
    19    15    18    1
@<TRIPOS>MOLECULE
*****
 18 19 0 0 0
SMALL
GASTEIGER

@<TRIPOS>ATOM
      1 C         -11.5461   -5.8709   18.7072 C.ar    1  UNL1        0.2900
      2 C         -12.4718   -4.9934   19.4965 C.ar    1  UNL1        0.0749
      3 C         -13.9059   -5.3918   19.6828 C.ar    1  UNL1        0.0021
      4 C         -14.4142   -6.6677   19.0799 C.ar    1  UNL1       -0.0204
      5 C         -13.4885   -7.5452   18.2906 C.ar    1  UNL1        0.0021
      6 C         -12.0545   -7.1468   18.1042 C.ar    1  UNL1        0.0749
      7 O          -9.2369   -5.2397   19.7166 O.2     1  UNL1        0.0415
      8 N         -10.1121   -5.4724   18.5209 N.pl3   1  UNL1        0.0809
      9 O          -9.5532   -5.3067   17.1388 O.co2   1  UNL1       -0.5760
     10 C         -15.8483   -7.0661   19.2662 C.3     1  UNL1        0.0437
     11 C         -16.1907   -8.4712   19.6640 C.3     1  UNL1        0.0769
     12 N         -17.5465   -9.0306   19.3493 N.3     1  UNL1       -0.2700
     13 C         -17.7244   -9.9529   18.1798 C.3     1  UNL1        0.0894
     14 C         -19.0802  -10.5122   17.8652 C.3     1  UNL1        0.0862
     15 N         -20.2581  -10.1492   18.7200 N.3     1  UNL1       -0.2951
     16 C         -20.0802   -9.2269   19.8895 C.3     1  UNL1        0.0862
     17 C         -18.7244   -8.6676   20.2041 C.3     1  UNL1        0.0894
     18 H         -20.6349  -11.0225   19.0885 H       1  UNL1        0.1233
@<TRIPOS>UNITY_ATOM_ATTR
8 1
charge 1
9 1
charge -1
@<TRIPOS>BOND
     1     7     8    2
     2     8     9    1
     3     8     1    1
     4     1     2   ar
     5     2     3   ar
     6     3     4   ar
     7     4    10    1
     8    10    11    1
     9    11    12    1
    10    12    13    1
    11    13    14    1
    12    14    15    1
    13    15    16    1
    14    16    17    1
    15     4     5   ar
    16     5     6   ar
    17     6     1   ar
    18    17    12    1
    19    15    18    1
