@<TRIPOS>MOLECULE
*****
 31 33 0 0 0
SMALL
GASTEIGER

@<TRIPOS>ATOM
      1 N          -6.6700  -14.6966   25.1668 N.3     1  UNL1       -0.2972
      2 H          -6.6190  -14.2036   26.0583 H       1  UNL1        0.1233
      3 C          -8.0515  -15.2728   25.0689 C.3     1  UNL1        0.0462
      4 C          -8.0754  -15.4677   26.5560 C.3     1  UNL1        0.0161
      5 C          -8.0276  -15.0778   23.5819 C.3     1  UNL1        0.0161
      6 C          -9.4329  -15.8490   24.9712 C.3     1  UNL1        0.0421
      7 C         -11.6734  -17.3738   20.9250 C.2     1  UNL1        0.1207
      8 C         -11.6343  -18.8646   20.7645 C.2     1  UNL1        0.0342
      9 C         -10.9521  -19.7125   21.7968 C.2     1  UNL1        0.0216
     10 C         -10.3089  -19.0695   22.9897 C.2     1  UNL1        0.0776
     11 N          -9.5690  -19.6426   24.1619 N.2     1  UNL1       -0.2445
     12 C          -9.1508  -18.5060   25.0468 C.2     1  UNL1        0.0943
     13 C          -9.6322  -17.2303   24.4216 C.2     1  UNL1       -0.0039
     14 C         -10.3480  -17.5786   23.1501 C.2     1  UNL1        0.0006
     15 C         -11.0302  -16.7308   22.1178 C.3     1  UNL1        0.0914
     16 C         -11.5548  -15.5715   19.0575 C.3     1  UNL1        0.2520
     17 O         -12.3557  -16.5259   19.8927 O.2     1  UNL1       -0.4753
     18 C          -5.4743  -15.6000   25.1025 C.3     1  UNL1        0.1020
     19 C          -4.7206  -15.7561   23.8149 C.3     1  UNL1        0.1697
     20 O          -4.6803  -14.6272   22.8279 O.3     1  UNL1       -0.3793
     21 H          -5.1880  -13.8767   23.1741 H       1  UNL1        0.2106
     22 C          -4.0073  -17.0409   23.5144 C.3     1  UNL1        0.2358
     23 O          -3.7570  -17.4448   22.0916 O.3     1  UNL1       -0.4721
     24 C          -4.4207  -18.6677   21.5312 C.ar    1  UNL1        0.1482
     25 C          -5.6831  -19.1873   22.1526 C.ar    1  UNL1        0.0376
     26 C          -6.3468  -20.4102   21.5922 C.ar    1  UNL1        0.0032
     27 C          -5.7479  -21.1134   20.4103 C.ar    1  UNL1        0.0009
     28 C          -4.4855  -20.5938   19.7888 C.ar    1  UNL1        0.0133
     29 C          -3.8218  -19.3709   20.3494 C.ar    1  UNL1        0.1023
     30 C          -2.5594  -18.8513   19.7279 C.1     1  UNL1        0.1035
     31 N          -1.2969  -18.3317   19.1065 N.1     1  UNL1       -0.1907
@<TRIPOS>BOND
     1    16    17    1
     2    17     7    1
     3     7     8    2
     4     8     9    1
     5     9    10    2
     6    10    11    1
     7    11    12    2
     8    12    13    1
     9    13     6    1
    10     6     3    1
    11     3     4    1
    12     3     5    1
    13     3     1    1
    14     1    18    1
    15    18    19    1
    16    19    20    1
    17    19    22    1
    18    22    23    1
    19    23    24    1
    20    24    25   ar
    21    25    26   ar
    22    26    27   ar
    23    27    28   ar
    24    28    29   ar
    25    29    30    1
    26    30    31    3
    27    13    14    2
    28    14    15    1
    29    15     7    1
    30    14    10    1
    31    29    24   ar
    32     1     2    1
    33    20    21    1
@<TRIPOS>MOLECULE
*****
 31 33 0 0 0
SMALL
GASTEIGER

@<TRIPOS>ATOM
      1 N          -8.7768  -18.4286   20.8423 N.3     1  UNL1       -0.2972
      2 H          -8.6936  -17.9531   19.9438 H       1  UNL1        0.1233
      3 C          -7.7437  -19.5161   20.8540 C.3     1  UNL1        0.0462
      4 C          -7.5217  -19.3210   19.3834 C.3     1  UNL1        0.0161
      5 C          -7.9656  -19.7112   22.3246 C.3     1  UNL1        0.0161
      6 C          -6.7105  -20.6035   20.8657 C.3     1  UNL1        0.0421
      7 C          -4.0073  -17.4084   23.3557 C.2     1  UNL1        0.1207
      8 C          -2.5746  -17.3876   22.9121 C.2     1  UNL1        0.0342
      9 C          -2.1180  -18.2943   21.8079 C.2     1  UNL1        0.0216
     10 C          -3.0942  -19.2219   21.1472 C.2     1  UNL1        0.0776
     11 N          -2.9369  -20.2227   20.0410 N.2     1  UNL1       -0.2445
     12 C          -4.2724  -20.8621   19.8009 C.2     1  UNL1        0.0943
     13 C          -5.2552  -20.2564   20.7587 C.2     1  UNL1       -0.0039
     14 C          -4.5270  -19.2427   21.5908 C.2     1  UNL1        0.0006
     15 C          -4.9835  -18.3360   22.6950 C.3     1  UNL1        0.0914
     16 C          -5.1457  -15.2062   24.1330 C.3     1  UNL1        0.2520
     17 O          -4.4638  -16.5016   24.4599 O.2     1  UNL1       -0.4753
     18 C         -10.2267  -18.7698   21.0190 C.3     1  UNL1        0.1020
     19 C         -11.1906  -17.7239   21.4956 C.3     1  UNL1        0.1697
     20 O         -12.5681  -17.6492   20.9065 O.3     1  UNL1       -0.3793
     21 H         -12.6713  -18.3431   20.2366 H       1  UNL1        0.2106
     22 C         -10.7771  -16.7527   22.5613 C.3     1  UNL1        0.2358
     23 O          -9.3502  -16.7073   23.0219 O.3     1  UNL1       -0.4721
     24 C          -9.0375  -16.5690   24.4824 C.ar    1  UNL1        0.1482
     25 C          -8.3699  -15.3262   24.9921 C.ar    1  UNL1        0.0376
     26 C          -8.0572  -15.1879   26.4526 C.ar    1  UNL1        0.0032
     27 C          -8.4122  -16.2925   27.4034 C.ar    1  UNL1        0.0009
     28 C          -9.0799  -17.5353   26.8937 C.ar    1  UNL1        0.0133
     29 C          -9.3925  -17.6735   25.4332 C.ar    1  UNL1        0.1023
     30 C         -10.0602  -18.9163   24.9235 C.1     1  UNL1        0.1035
     31 N         -10.7278  -20.1590   24.4138 N.1     1  UNL1       -0.1907
@<TRIPOS>BOND
     1    16    17    1
     2    17     7    1
     3     7     8    2
     4     8     9    1
     5     9    10    2
     6    10    11    1
     7    11    12    2
     8    12    13    1
     9    13     6    1
    10     6     3    1
    11     3     4    1
    12     3     5    1
    13     3     1    1
    14     1    18    1
    15    18    19    1
    16    19    20    1
    17    19    22    1
    18    22    23    1
    19    23    24    1
    20    24    25   ar
    21    25    26   ar
    22    26    27   ar
    23    27    28   ar
    24    28    29   ar
    25    29    30    1
    26    30    31    3
    27    13    14    2
    28    14    15    1
    29    15     7    1
    30    14    10    1
    31    29    24   ar
    32     1     2    1
    33    20    21    1
@<TRIPOS>MOLECULE
*****
 31 33 0 0 0
SMALL
GASTEIGER

@<TRIPOS>ATOM
      1 N          -8.3250  -19.3703   22.1102 N.3     1  UNL1       -0.2972
      2 H          -9.0337  -19.1502   21.4103 H       1  UNL1        0.1233
      3 C          -7.1856  -20.0209   21.3830 C.3     1  UNL1        0.0462
      4 C          -6.8497  -20.8088   22.6145 C.3     1  UNL1        0.0161
      5 C          -7.5215  -19.2330   20.1516 C.3     1  UNL1        0.0161
      6 C          -6.0463  -20.6715   20.6560 C.3     1  UNL1        0.0421
      7 C          -4.0315  -17.0974   23.2795 C.2     1  UNL1        0.1207
      8 C          -2.7075  -16.6504   22.7344 C.2     1  UNL1        0.0342
      9 C          -2.1457  -17.2984   21.5038 C.2     1  UNL1        0.0216
     10 C          -2.9079  -18.3933   20.8182 C.2     1  UNL1        0.0776
     11 N          -2.6089  -19.2122   19.5976 N.2     1  UNL1       -0.2445
     12 C          -3.7481  -20.1653   19.3882 C.2     1  UNL1        0.0943
     13 C          -4.7513  -19.9354   20.4795 C.2     1  UNL1       -0.0039
     14 C          -4.2320  -18.8402   21.3632 C.2     1  UNL1        0.0006
     15 C          -4.7938  -18.1923   22.5939 C.3     1  UNL1        0.0914
     16 C          -5.8001  -15.5646   24.4075 C.3     1  UNL1        0.2520
     17 O          -4.5933  -16.4494   24.5102 O.2     1  UNL1       -0.4753
     18 C          -9.0230  -20.1018   23.2180 C.3     1  UNL1        0.1020
     19 C          -9.5191  -19.3498   24.4175 C.3     1  UNL1        0.1697
     20 O         -10.3313  -20.0561   25.4623 O.3     1  UNL1       -0.3793
     21 H         -10.4430  -20.9863   25.2109 H       1  UNL1        0.2106
     22 C          -9.2029  -17.8918   24.5721 C.3     1  UNL1        0.2358
     23 O         -10.2374  -16.8599   24.2326 O.3     1  UNL1       -0.4721
     24 C         -10.8687  -16.8500   22.8719 C.ar    1  UNL1        0.1482
     25 C         -10.1219  -16.2795   21.7028 C.ar    1  UNL1        0.0376
     26 C         -10.7532  -16.2695   20.3422 C.ar    1  UNL1        0.0032
     27 C         -12.1313  -16.8302   20.1507 C.ar    1  UNL1        0.0009
     28 C         -12.8781  -17.4007   21.3198 C.ar    1  UNL1        0.0133
     29 C         -12.2467  -17.4106   22.6805 C.ar    1  UNL1        0.1023
     30 C         -12.9935  -17.9811   23.8496 C.1     1  UNL1        0.1035
     31 N         -13.7403  -18.5516   25.0187 N.1     1  UNL1       -0.1907
@<TRIPOS>BOND
     1    16    17    1
     2    17     7    1
     3     7     8    2
     4     8     9    1
     5     9    10    2
     6    10    11    1
     7    11    12    2
     8    12    13    1
     9    13     6    1
    10     6     3    1
    11     3     4    1
    12     3     5    1
    13     3     1    1
    14     1    18    1
    15    18    19    1
    16    19    20    1
    17    19    22    1
    18    22    23    1
    19    23    24    1
    20    24    25   ar
    21    25    26   ar
    22    26    27   ar
    23    27    28   ar
    24    28    29   ar
    25    29    30    1
    26    30    31    3
    27    13    14    2
    28    14    15    1
    29    15     7    1
    30    14    10    1
    31    29    24   ar
    32     1     2    1
    33    20    21    1
@<TRIPOS>MOLECULE
*****
 31 33 0 0 0
SMALL
GASTEIGER

@<TRIPOS>ATOM
      1 N          -8.5573  -19.6157   22.8111 N.3     1  UNL1       -0.2972
      2 H          -8.5065  -18.6199   23.0260 H       1  UNL1        0.1233
      3 C          -7.6030  -19.8640   21.6807 C.3     1  UNL1        0.0462
      4 C          -8.3556  -18.8840   20.8302 C.3     1  UNL1        0.0161
      5 C          -6.8505  -20.8440   22.5311 C.3     1  UNL1        0.0161
      6 C          -6.6489  -20.1123   20.5502 C.3     1  UNL1        0.0421
      7 C          -4.1306  -16.9994   23.3223 C.2     1  UNL1        0.1207
      8 C          -2.6485  -17.2155   23.2411 C.2     1  UNL1        0.0342
      9 C          -2.0957  -18.3032   22.3687 C.2     1  UNL1        0.0216
     10 C          -3.0251  -19.1750   21.5773 C.2     1  UNL1        0.0776
     11 N          -2.7739  -20.3177   20.6387 N.2     1  UNL1       -0.2445
     12 C          -4.1009  -20.8079   20.1396 C.2     1  UNL1        0.0943
     13 C          -5.1721  -19.9682   20.7699 C.2     1  UNL1       -0.0039
     14 C          -4.5072  -18.9590   21.6584 C.2     1  UNL1        0.0006
     15 C          -5.0599  -17.8712   22.5309 C.3     1  UNL1        0.0914
     16 C          -4.9125  -16.1653   25.6552 C.3     1  UNL1        0.2520
     17 O          -4.6833  -15.9116   24.1947 O.2     1  UNL1       -0.4753
     18 C         -10.0107  -19.9510   22.6531 C.3     1  UNL1        0.1020
     19 C         -11.0045  -19.4787   23.6726 C.3     1  UNL1        0.1697
     20 O         -10.8938  -19.9374   25.0965 O.3     1  UNL1       -0.3793
     21 H         -10.1313  -20.5302   25.1869 H       1  UNL1        0.2106
     22 C         -12.1089  -18.5478   23.2683 C.3     1  UNL1        0.2358
     23 O         -11.8996  -17.0637   23.3308 O.3     1  UNL1       -0.4721
     24 C         -10.5265  -16.4911   23.1393 C.ar    1  UNL1        0.1482
     25 C          -9.5712  -16.4308   24.2942 C.ar    1  UNL1        0.0376
     26 C          -8.1981  -15.8583   24.1027 C.ar    1  UNL1        0.0032
     27 C          -7.7803  -15.3461   22.7561 C.ar    1  UNL1        0.0009
     28 C          -8.7355  -15.4064   21.6012 C.ar    1  UNL1        0.0133
     29 C         -10.1086  -15.9790   21.7928 C.ar    1  UNL1        0.1023
     30 C         -11.0639  -16.0393   20.6379 C.1     1  UNL1        0.1035
     31 N         -12.0191  -16.0997   19.4829 N.1     1  UNL1       -0.1907
@<TRIPOS>BOND
     1    16    17    1
     2    17     7    1
     3     7     8    2
     4     8     9    1
     5     9    10    2
     6    10    11    1
     7    11    12    2
     8    12    13    1
     9    13     6    1
    10     6     3    1
    11     3     4    1
    12     3     5    1
    13     3     1    1
    14     1    18    1
    15    18    19    1
    16    19    20    1
    17    19    22    1
    18    22    23    1
    19    23    24    1
    20    24    25   ar
    21    25    26   ar
    22    26    27   ar
    23    27    28   ar
    24    28    29   ar
    25    29    30    1
    26    30    31    3
    27    13    14    2
    28    14    15    1
    29    15     7    1
    30    14    10    1
    31    29    24   ar
    32     1     2    1
    33    20    21    1
@<TRIPOS>MOLECULE
*****
 31 33 0 0 0
SMALL
GASTEIGER

@<TRIPOS>ATOM
      1 N          -7.9557  -19.5477   21.5135 N.3     1  UNL1       -0.2972
      2 H          -8.6152  -20.3242   21.5649 H       1  UNL1        0.1233
      3 C          -6.6639  -20.1101   20.9987 C.3     1  UNL1        0.0462
      4 C          -6.5395  -20.9538   22.2327 C.3     1  UNL1        0.0161
      5 C          -6.7883  -19.2665   19.7647 C.3     1  UNL1        0.0161
      6 C          -5.3721  -20.6726   20.4840 C.3     1  UNL1        0.0421
      7 C          -3.7620  -16.8968   23.1046 C.2     1  UNL1        0.1207
      8 C          -2.5239  -16.2750   22.5298 C.2     1  UNL1        0.0342
      9 C          -1.9193  -16.8301   21.2743 C.2     1  UNL1        0.0216
     10 C          -2.5528  -18.0071   20.5936 C.2     1  UNL1        0.0776
     11 N          -2.1861  -18.7660   19.3528 N.2     1  UNL1       -0.2445
     12 C          -3.1976  -19.8569   19.1607 C.2     1  UNL1        0.0943
     13 C          -4.1894  -19.7722   20.2828 C.2     1  UNL1       -0.0039
     14 C          -3.7909  -18.6289   21.1683 C.2     1  UNL1        0.0006
     15 C          -4.3955  -18.0738   22.4238 C.3     1  UNL1        0.0914
     16 C          -5.6427  -15.5562   24.2943 C.3     1  UNL1        0.2520
     17 O          -4.3666  -16.3417   24.3601 O.2     1  UNL1       -0.4753
     18 C          -7.9955  -18.8570   22.8443 C.3     1  UNL1        0.1020
     19 C          -9.1869  -19.0236   23.7405 C.3     1  UNL1        0.1697
     20 O          -9.4076  -18.0725   24.8793 O.3     1  UNL1       -0.3793
     21 H          -8.6941  -17.4154   24.8947 H       1  UNL1        0.2106
     22 C         -10.1574  -20.1412   23.4979 C.3     1  UNL1        0.2358
     23 O         -11.1066  -20.0719   22.3384 O.3     1  UNL1       -0.4721
     24 C         -11.5072  -18.7404   21.7756 C.ar    1  UNL1        0.1482
     25 C         -12.2599  -17.7618   22.6275 C.ar    1  UNL1        0.0376
     26 C         -12.6605  -16.4304   22.0646 C.ar    1  UNL1        0.0032
     27 C         -12.3084  -16.0777   20.6498 C.ar    1  UNL1        0.0009
     28 C         -11.5558  -17.0563   19.7979 C.ar    1  UNL1        0.0133
     29 C         -11.1552  -18.3877   20.3608 C.ar    1  UNL1        0.1023
     30 C         -10.4025  -19.3664   19.5089 C.1     1  UNL1        0.1035
     31 N          -9.6499  -20.3450   18.6570 N.1     1  UNL1       -0.1907
@<TRIPOS>BOND
     1    16    17    1
     2    17     7    1
     3     7     8    2
     4     8     9    1
     5     9    10    2
     6    10    11    1
     7    11    12    2
     8    12    13    1
     9    13     6    1
    10     6     3    1
    11     3     4    1
    12     3     5    1
    13     3     1    1
    14     1    18    1
    15    18    19    1
    16    19    20    1
    17    19    22    1
    18    22    23    1
    19    23    24    1
    20    24    25   ar
    21    25    26   ar
    22    26    27   ar
    23    27    28   ar
    24    28    29   ar
    25    29    30    1
    26    30    31    3
    27    13    14    2
    28    14    15    1
    29    15     7    1
    30    14    10    1
    31    29    24   ar
    32     1     2    1
    33    20    21    1
@<TRIPOS>MOLECULE
*****
 31 33 0 0 0
SMALL
GASTEIGER

@<TRIPOS>ATOM
      1 N         -11.4822   -7.9065   17.8146 N.3     1  UNL1       -0.2972
      2 H         -11.5908   -8.0908   18.8119 H       1  UNL1        0.1233
      3 C         -10.5122   -6.7694   17.6874 C.3     1  UNL1        0.0462
      4 C          -9.9039   -7.1407   19.0073 C.3     1  UNL1        0.0161
      5 C         -11.1205   -6.3981   16.3675 C.3     1  UNL1        0.0161
      6 C          -9.5422   -5.6323   17.5603 C.3     1  UNL1        0.0421
      7 C         -13.2318   -3.3312   19.7532 C.2     1  UNL1        0.1207
      8 C         -13.3839   -1.9099   19.2986 C.2     1  UNL1        0.0342
      9 C         -12.4476   -1.3468   18.2709 C.2     1  UNL1        0.0216
     10 C         -11.3591   -2.2051   17.6977 C.2     1  UNL1        0.0776
     11 N         -10.2943   -1.9280   16.6782 N.2     1  UNL1       -0.2445
     12 C          -9.4841   -3.1781   16.5026 C.2     1  UNL1        0.0943
     13 C         -10.0481   -4.2278   17.4136 C.2     1  UNL1       -0.0039
     14 C         -11.2070   -3.6264   18.1522 C.2     1  UNL1        0.0006
     15 C         -12.1433   -4.1895   19.1800 C.3     1  UNL1        0.0914
     16 C         -15.5936   -4.1863   20.4168 C.3     1  UNL1        0.2520
     17 O         -14.1681   -3.8943   20.7809 O.2     1  UNL1       -0.4753
     18 C         -12.8638   -7.7810   17.2444 C.3     1  UNL1        0.1020
     19 C         -14.0601   -8.0103   18.1199 C.3     1  UNL1        0.1697
     20 O         -14.0952   -9.1878   19.0487 O.3     1  UNL1       -0.3793
     21 H         -13.2729   -9.6946   18.9594 H       1  UNL1        0.2106
     22 C         -15.2212   -7.0623   18.0667 C.3     1  UNL1        0.2358
     23 O         -16.5636   -7.5456   17.6033 O.3     1  UNL1       -0.4721
     24 C         -17.7223   -7.5686   18.5555 C.ar    1  UNL1        0.1482
     25 C         -18.5097   -6.3173   18.8089 C.ar    1  UNL1        0.0376
     26 C         -19.6685   -6.3403   19.7612 C.ar    1  UNL1        0.0032
     27 C         -20.0397   -7.6147   20.4601 C.ar    1  UNL1        0.0009
     28 C         -19.2523   -8.8660   20.2066 C.ar    1  UNL1        0.0133
     29 C         -18.0935   -8.8429   19.2543 C.ar    1  UNL1        0.1023
     30 C         -17.3061  -10.0942   19.0009 C.1     1  UNL1        0.1035
     31 N         -16.5186  -11.3454   18.7475 N.1     1  UNL1       -0.1907
@<TRIPOS>BOND
     1    16    17    1
     2    17     7    1
     3     7     8    2
     4     8     9    1
     5     9    10    2
     6    10    11    1
     7    11    12    2
     8    12    13    1
     9    13     6    1
    10     6     3    1
    11     3     4    1
    12     3     5    1
    13     3     1    1
    14     1    18    1
    15    18    19    1
    16    19    20    1
    17    19    22    1
    18    22    23    1
    19    23    24    1
    20    24    25   ar
    21    25    26   ar
    22    26    27   ar
    23    27    28   ar
    24    28    29   ar
    25    29    30    1
    26    30    31    3
    27    13    14    2
    28    14    15    1
    29    15     7    1
    30    14    10    1
    31    29    24   ar
    32     1     2    1
    33    20    21    1
@<TRIPOS>MOLECULE
*****
 31 33 0 0 0
SMALL
GASTEIGER

@<TRIPOS>ATOM
      1 N          -8.3483  -19.3341   22.5714 N.3     1  UNL1       -0.2972
      2 H          -8.8594  -18.5114   22.2513 H       1  UNL1        0.1233
      3 C          -7.4526  -19.7535   21.4436 C.3     1  UNL1        0.0462
      4 C          -8.0858  -18.7222   20.5573 C.3     1  UNL1        0.0161
      5 C          -6.8195  -20.7848   22.3299 C.3     1  UNL1        0.0161
      6 C          -6.5571  -20.1729   20.3158 C.3     1  UNL1        0.0421
      7 C          -3.7137  -17.3026   23.0347 C.2     1  UNL1        0.1207
      8 C          -2.2572  -17.6385   22.9089 C.2     1  UNL1        0.0342
      9 C          -1.8207  -18.7597   22.0131 C.2     1  UNL1        0.0216
     10 C          -2.8407  -19.5450   21.2432 C.2     1  UNL1        0.0776
     11 N          -2.7111  -20.6956   20.2896 N.2     1  UNL1       -0.2445
     12 C          -4.0875  -21.0709   19.8262 C.2     1  UNL1        0.0943
     13 C          -5.0678  -20.1522   20.4932 C.2     1  UNL1       -0.0039
     14 C          -4.2972  -19.2091   21.3690 C.2     1  UNL1        0.0006
     15 C          -4.7336  -18.0880   22.2648 C.3     1  UNL1        0.0914
     16 C          -4.6079  -14.8821   23.3371 C.3     1  UNL1        0.2520
     17 O          -4.1501  -16.1814   23.9305 O.2     1  UNL1       -0.4753
     18 C          -9.3663  -20.2913   23.1165 C.3     1  UNL1        0.1020
     19 C         -10.0312  -20.0107   24.4315 C.3     1  UNL1        0.1697
     20 O          -9.9517  -21.0163   25.5418 O.3     1  UNL1       -0.3793
     21 H          -9.4385  -21.7845   25.2461 H       1  UNL1        0.2106
     22 C         -10.7755  -18.7247   24.6363 C.3     1  UNL1        0.2358
     23 O         -10.1333  -17.4197   24.2692 O.3     1  UNL1       -0.4721
     24 C          -9.1026  -16.8105   25.1729 C.ar    1  UNL1        0.1482
     25 C          -9.1365  -17.0916   26.6460 C.ar    1  UNL1        0.0376
     26 C          -8.1059  -16.4825   27.5497 C.ar    1  UNL1        0.0032
     27 C          -7.0413  -15.5922   26.9802 C.ar    1  UNL1        0.0009
     28 C          -7.0074  -15.3111   25.5072 C.ar    1  UNL1        0.0133
     29 C          -8.0381  -15.9203   24.6035 C.ar    1  UNL1        0.1023
     30 C          -8.0042  -15.6392   23.1305 C.1     1  UNL1        0.1035
     31 N          -7.9703  -15.3581   21.6575 N.1     1  UNL1       -0.1907
@<TRIPOS>BOND
     1    16    17    1
     2    17     7    1
     3     7     8    2
     4     8     9    1
     5     9    10    2
     6    10    11    1
     7    11    12    2
     8    12    13    1
     9    13     6    1
    10     6     3    1
    11     3     4    1
    12     3     5    1
    13     3     1    1
    14     1    18    1
    15    18    19    1
    16    19    20    1
    17    19    22    1
    18    22    23    1
    19    23    24    1
    20    24    25   ar
    21    25    26   ar
    22    26    27   ar
    23    27    28   ar
    24    28    29   ar
    25    29    30    1
    26    30    31    3
    27    13    14    2
    28    14    15    1
    29    15     7    1
    30    14    10    1
    31    29    24   ar
    32     1     2    1
    33    20    21    1
@<TRIPOS>MOLECULE
*****
 31 33 0 0 0
SMALL
GASTEIGER

@<TRIPOS>ATOM
      1 N         -15.0356   -4.3666   19.5014 N.3     1  UNL1       -0.2972
      2 H         -15.4253   -4.5304   18.5731 H       1  UNL1        0.1233
      3 C         -14.1948   -3.1280   19.4058 C.3     1  UNL1        0.0462
      4 C         -14.6679   -2.9156   17.9983 C.3     1  UNL1        0.0161
      5 C         -13.7218   -3.3405   20.8133 C.3     1  UNL1        0.0161
      6 C         -13.3541   -1.8895   19.3101 C.3     1  UNL1        0.0421
      7 C         -10.3388   -5.4169   17.8328 C.2     1  UNL1        0.1207
      8 C          -9.2890   -4.9247   16.8812 C.2     1  UNL1        0.0342
      9 C          -9.2540   -3.4781   16.4858 C.2     1  UNL1        0.0216
     10 C         -10.2687   -2.5238   17.0421 C.2     1  UNL1        0.0776
     11 N         -10.4823   -1.0534   16.8364 N.2     1  UNL1       -0.2445
     12 C         -11.6641   -0.6368   17.6610 C.2     1  UNL1        0.0943
     13 C         -12.1809   -1.8497   18.3763 C.2     1  UNL1       -0.0039
     14 C         -11.3185   -3.0160   17.9938 C.2     1  UNL1        0.0006
     15 C         -11.3535   -4.4625   18.3891 C.3     1  UNL1        0.0914
     16 C          -9.2622   -7.4429   19.0518 C.3     1  UNL1        0.2520
     17 O         -10.3738   -6.8634   18.2282 O.2     1  UNL1       -0.4753
     18 C         -14.4186   -5.6594   19.9462 C.3     1  UNL1        0.1020
     19 C         -14.1370   -6.7399   18.9445 C.3     1  UNL1        0.1697
     20 O         -12.9672   -7.6582   19.1408 O.3     1  UNL1       -0.3793
     21 H         -12.5017   -7.4187   19.9574 H       1  UNL1        0.2106
     22 C         -15.0250   -6.9020   17.7466 C.3     1  UNL1        0.2358
     23 O         -16.0871   -7.9613   17.7381 O.3     1  UNL1       -0.4721
     24 C         -17.3040   -7.8103   18.6020 C.ar    1  UNL1        0.1482
     25 C         -17.9405   -6.4627   18.7721 C.ar    1  UNL1        0.0376
     26 C         -19.1574   -6.3117   19.6360 C.ar    1  UNL1        0.0032
     27 C         -19.7379   -7.5084   20.3297 C.ar    1  UNL1        0.0009
     28 C         -19.1014   -8.8559   20.1595 C.ar    1  UNL1        0.0133
     29 C         -17.8845   -9.0069   19.2956 C.ar    1  UNL1        0.1023
     30 C         -17.2480  -10.3544   19.1255 C.1     1  UNL1        0.1035
     31 N         -16.6116  -11.7020   18.9553 N.1     1  UNL1       -0.1907
@<TRIPOS>BOND
     1    16    17    1
     2    17     7    1
     3     7     8    2
     4     8     9    1
     5     9    10    2
     6    10    11    1
     7    11    12    2
     8    12    13    1
     9    13     6    1
    10     6     3    1
    11     3     4    1
    12     3     5    1
    13     3     1    1
    14     1    18    1
    15    18    19    1
    16    19    20    1
    17    19    22    1
    18    22    23    1
    19    23    24    1
    20    24    25   ar
    21    25    26   ar
    22    26    27   ar
    23    27    28   ar
    24    28    29   ar
    25    29    30    1
    26    30    31    3
    27    13    14    2
    28    14    15    1
    29    15     7    1
    30    14    10    1
    31    29    24   ar
    32     1     2    1
    33    20    21    1
@<TRIPOS>MOLECULE
*****
 31 33 0 0 0
SMALL
GASTEIGER

@<TRIPOS>ATOM
      1 N          -7.9669  -20.3897   22.8110 N.3     1  UNL1       -0.2972
      2 H          -7.3494  -20.1473   23.5858 H       1  UNL1        0.1233
      3 C          -7.1805  -20.1847   21.5501 C.3     1  UNL1        0.0462
      4 C          -8.1560  -19.1324   21.1129 C.3     1  UNL1        0.0161
      5 C          -6.2051  -21.2370   21.9873 C.3     1  UNL1        0.0161
      6 C          -6.3943  -19.9797   20.2892 C.3     1  UNL1        0.0421
      7 C          -4.1244  -17.1264   23.5177 C.2     1  UNL1        0.1207
      8 C          -2.6722  -16.9275   23.1990 C.2     1  UNL1        0.0342
      9 C          -2.0735  -17.5813   21.9891 C.2     1  UNL1        0.0216
     10 C          -2.9269  -18.4341   21.0978 C.2     1  UNL1        0.0776
     11 N          -2.6180  -19.1999   19.8455 N.2     1  UNL1       -0.2445
     12 C          -3.8793  -19.8721   19.3902 C.2     1  UNL1        0.0943
     13 C          -4.9677  -19.5217   20.3610 C.2     1  UNL1       -0.0039
     14 C          -4.3791  -18.6330   21.4164 C.2     1  UNL1        0.0006
     15 C          -4.9778  -17.9791   22.6264 C.3     1  UNL1        0.0914
     16 C          -5.6007  -15.2662   24.5712 C.3     1  UNL1        0.2520
     17 O          -4.7232  -16.4726   24.7276 O.2     1  UNL1       -0.4753
     18 C          -9.2474  -19.6391   23.0266 C.3     1  UNL1        0.1020
     19 C          -9.6098  -19.1528   24.3986 C.3     1  UNL1        0.1697
     20 O         -10.3061  -20.0702   25.3598 O.3     1  UNL1       -0.3793
     21 H         -10.4461  -20.9331   24.9395 H       1  UNL1        0.2106
     22 C          -9.2760  -17.7494   24.8094 C.3     1  UNL1        0.2358
     23 O         -10.0877  -16.6015   24.2862 O.3     1  UNL1       -0.4721
     24 C         -10.9079  -16.7687   23.0414 C.ar    1  UNL1        0.1482
     25 C         -12.2474  -17.4402   23.1105 C.ar    1  UNL1        0.0376
     26 C         -13.0676  -17.6074   21.8657 C.ar    1  UNL1        0.0032
     27 C         -12.5482  -17.1030   20.5520 C.ar    1  UNL1        0.0009
     28 C         -11.2087  -16.4314   20.4830 C.ar    1  UNL1        0.0133
     29 C         -10.3886  -16.2643   21.7278 C.ar    1  UNL1        0.1023
     30 C          -9.0491  -15.5928   21.6587 C.1     1  UNL1        0.1035
     31 N          -7.7096  -14.9212   21.5897 N.1     1  UNL1       -0.1907
@<TRIPOS>BOND
     1    16    17    1
     2    17     7    1
     3     7     8    2
     4     8     9    1
     5     9    10    2
     6    10    11    1
     7    11    12    2
     8    12    13    1
     9    13     6    1
    10     6     3    1
    11     3     4    1
    12     3     5    1
    13     3     1    1
    14     1    18    1
    15    18    19    1
    16    19    20    1
    17    19    22    1
    18    22    23    1
    19    23    24    1
    20    24    25   ar
    21    25    26   ar
    22    26    27   ar
    23    27    28   ar
    24    28    29   ar
    25    29    30    1
    26    30    31    3
    27    13    14    2
    28    14    15    1
    29    15     7    1
    30    14    10    1
    31    29    24   ar
    32     1     2    1
    33    20    21    1
