@<TRIPOS>MOLECULE
*****
 19 21 0 0 0
SMALL
GASTEIGER

@<TRIPOS>ATOM
      1 C         -10.1103  -18.3931   22.0395 C.3     1  UNL1        0.0883
      2 C         -11.2119  -18.8976   21.1551 C.3     1  UNL1        0.0885
      3 N         -12.3128  -17.9731   20.7269 N.3     1  UNL1       -0.2947
      4 C         -12.3121  -16.5441   21.1830 C.3     1  UNL1        0.0903
      5 C         -11.2105  -16.0397   22.0674 C.3     1  UNL1        0.1076
      6 N         -10.1096  -16.9642   22.4956 N.pl3   1  UNL1       -0.3093
      7 H         -13.1870  -18.3856   21.0523 H       1  UNL1        0.1233
      8 C          -9.0081  -16.4597   23.3800 C.2     1  UNL1        0.0295
      9 C          -7.7252  -15.9711   22.7755 C.2     1  UNL1        0.0120
     10 C          -6.6236  -15.4666   23.6599 C.2     1  UNL1        0.0216
     11 C          -6.8051  -15.4507   25.1488 C.2     1  UNL1        0.1008
     12 N          -5.9034  -15.0139   26.2651 N.2     1  UNL1       -0.1482
     13 N          -6.6291  -15.2326   27.5595 N.2     1  UNL1       -0.1467
     14 C          -7.9792  -15.8045   27.2432 C.2     1  UNL1        0.1198
     15 C          -8.0880  -15.9393   25.7532 C.2     1  UNL1        0.0238
     16 C          -9.1895  -16.4438   24.8688 C.3     1  UNL1        0.0705
     17 C          -9.0095  -19.3176   22.4676 C.3     1  UNL1        0.0211
     18 C         -10.2660  -19.9454   24.6533 C.3     1  UNL1        0.0001
     19 C          -9.2212  -20.2521   23.6218 C.3     1  UNL1        0.0017
@<TRIPOS>BOND
     1    18    19    1
     2    19    17    1
     3     1    17    1
     4     1     2    1
     5     2     3    1
     6     3     4    1
     7     4     5    1
     8     5     6    1
     9     6     8    1
    10     8     9    2
    11     9    10    1
    12    10    11    2
    13    11    12    1
    14    12    13    2
    15    13    14    1
    16    14    15    2
    17    15    16    1
    18     6     1    1
    19    16     8    1
    20    15    11    1
    21     3     7    1
@<TRIPOS>MOLECULE
*****
 19 21 0 0 0
SMALL
GASTEIGER

@<TRIPOS>ATOM
      1 C          -9.7892  -18.3814   21.4328 C.3     1  UNL1        0.0883
      2 C         -10.6273  -18.7849   20.2559 C.3     1  UNL1        0.0885
      3 N         -11.4994  -17.7728   19.5741 N.3     1  UNL1       -0.2947
      4 C         -11.5334  -16.3572   20.0691 C.3     1  UNL1        0.0903
      5 C         -10.6954  -15.9538   21.2458 C.3     1  UNL1        0.1076
      6 N          -9.8232  -16.9659   21.9277 N.pl3   1  UNL1       -0.3093
      7 H         -12.4551  -18.1256   19.6250 H       1  UNL1        0.1233
      8 C          -8.9851  -16.5624   23.1045 C.2     1  UNL1        0.0295
      9 C          -9.5417  -16.6687   24.4933 C.2     1  UNL1        0.0120
     10 C          -8.7036  -16.2652   25.6701 C.2     1  UNL1        0.0216
     11 C          -7.3089  -15.7554   25.4580 C.2     1  UNL1        0.1008
     12 N          -6.2549  -15.2868   26.4169 N.2     1  UNL1       -0.1482
     13 N          -5.0469  -14.8909   25.6206 N.2     1  UNL1       -0.1467
     14 C          -5.3543  -15.1149   24.1696 C.2     1  UNL1        0.1198
     15 C          -6.7523  -15.6492   24.0691 C.2     1  UNL1        0.0238
     16 C          -7.5904  -16.0527   22.8924 C.3     1  UNL1        0.0705
     17 C          -8.9170  -19.3936   22.1146 C.3     1  UNL1        0.0211
     18 C          -7.0772  -19.4385   20.2807 C.3     1  UNL1        0.0001
     19 C          -7.4746  -19.5252   21.7244 C.3     1  UNL1        0.0017
@<TRIPOS>BOND
     1    18    19    1
     2    19    17    1
     3     1    17    1
     4     1     2    1
     5     2     3    1
     6     3     4    1
     7     4     5    1
     8     5     6    1
     9     6     8    1
    10     8     9    2
    11     9    10    1
    12    10    11    2
    13    11    12    1
    14    12    13    2
    15    13    14    1
    16    14    15    2
    17    15    16    1
    18     6     1    1
    19    16     8    1
    20    15    11    1
    21     3     7    1
@<TRIPOS>MOLECULE
*****
 19 21 0 0 0
SMALL
GASTEIGER

@<TRIPOS>ATOM
      1 C          -6.5634  -16.1921   23.8666 C.3     1  UNL1        0.0883
      2 C          -5.0992  -16.0561   24.1627 C.3     1  UNL1        0.0885
      3 N          -4.1257  -17.0519   23.6053 N.3     1  UNL1       -0.2947
      4 C          -4.6164  -18.1837   22.7520 C.3     1  UNL1        0.0903
      5 C          -6.0806  -18.3197   22.4559 C.3     1  UNL1        0.1076
      6 N          -7.0541  -17.3238   23.0133 N.pl3   1  UNL1       -0.3093
      7 H          -3.6445  -17.4705   24.4013 H       1  UNL1        0.1233
      8 C          -8.5183  -17.4599   22.7172 C.2     1  UNL1        0.0295
      9 C          -9.3580  -18.4170   23.5099 C.2     1  UNL1        0.0120
     10 C         -10.8223  -18.5531   23.2139 C.2     1  UNL1        0.0216
     11 C         -11.4467  -17.7318   22.1250 C.2     1  UNL1        0.1008
     12 N         -12.8530  -17.6513   21.6096 N.2     1  UNL1       -0.1482
     13 N         -12.8824  -16.6443   20.4982 N.2     1  UNL1       -0.1467
     14 C         -11.4942  -16.1024   20.3268 C.2     1  UNL1        0.1198
     15 C         -10.6069  -16.7745   21.3323 C.2     1  UNL1        0.0238
     16 C          -9.1427  -16.6386   21.6284 C.3     1  UNL1        0.0705
     17 C          -7.5369  -15.1963   24.4240 C.3     1  UNL1        0.0211
     18 C          -7.5395  -15.6050   26.9898 C.3     1  UNL1        0.0001
     19 C          -8.2810  -15.5024   25.6900 C.3     1  UNL1        0.0017
@<TRIPOS>BOND
     1    18    19    1
     2    19    17    1
     3     1    17    1
     4     1     2    1
     5     2     3    1
     6     3     4    1
     7     4     5    1
     8     5     6    1
     9     6     8    1
    10     8     9    2
    11     9    10    1
    12    10    11    2
    13    11    12    1
    14    12    13    2
    15    13    14    1
    16    14    15    2
    17    15    16    1
    18     6     1    1
    19    16     8    1
    20    15    11    1
    21     3     7    1
@<TRIPOS>MOLECULE
*****
 19 21 0 0 0
SMALL
GASTEIGER

@<TRIPOS>ATOM
      1 C          -6.4242  -18.4760   22.2784 C.3     1  UNL1        0.0883
      2 C          -4.9283  -18.5618   22.3508 C.3     1  UNL1        0.0885
      3 N          -4.1499  -17.4979   23.0664 N.3     1  UNL1       -0.2947
      4 C          -4.8673  -16.3482   23.7095 C.3     1  UNL1        0.0903
      5 C          -6.3631  -16.2625   23.6371 C.3     1  UNL1        0.1076
      6 N          -7.1415  -17.3264   22.9215 N.pl3   1  UNL1       -0.3093
      7 H          -3.5035  -17.0982   22.3861 H       1  UNL1        0.1233
      8 C          -8.6373  -17.2406   22.8490 C.2     1  UNL1        0.0295
      9 C          -9.2889  -16.3312   21.8500 C.2     1  UNL1        0.0120
     10 C         -10.7847  -16.2453   21.7775 C.2     1  UNL1        0.0216
     11 C         -11.6289  -17.0690   22.7043 C.2     1  UNL1        0.1008
     12 N         -13.1151  -17.1931   22.8647 N.2     1  UNL1       -0.1482
     13 N         -13.3820  -18.1793   23.9629 N.2     1  UNL1       -0.1467
     14 C         -12.0608  -18.6647   24.4813 C.2     1  UNL1        0.1198
     15 C         -10.9773  -17.9785   23.7035 C.2     1  UNL1        0.0238
     16 C          -9.4815  -18.0642   23.7758 C.3     1  UNL1        0.0705
     17 C          -7.2026  -19.5399   21.5628 C.3     1  UNL1        0.0211
     18 C          -8.9508  -19.4670   19.6421 C.3     1  UNL1        0.0001
     19 C          -7.5273  -19.3807   20.1070 C.3     1  UNL1        0.0017
@<TRIPOS>BOND
     1    18    19    1
     2    19    17    1
     3     1    17    1
     4     1     2    1
     5     2     3    1
     6     3     4    1
     7     4     5    1
     8     5     6    1
     9     6     8    1
    10     8     9    2
    11     9    10    1
    12    10    11    2
    13    11    12    1
    14    12    13    2
    15    13    14    1
    16    14    15    2
    17    15    16    1
    18     6     1    1
    19    16     8    1
    20    15    11    1
    21     3     7    1
@<TRIPOS>MOLECULE
*****
 19 21 0 0 0
SMALL
GASTEIGER

@<TRIPOS>ATOM
      1 C          -6.1548  -18.2184   22.6226 C.3     1  UNL1        0.0883
      2 C          -4.6690  -18.0310   22.7100 C.3     1  UNL1        0.0885
      3 N          -4.1054  -16.7744   23.3044 N.3     1  UNL1       -0.2947
      4 C          -5.0274  -15.7054   23.8114 C.3     1  UNL1        0.0903
      5 C          -6.5130  -15.8929   23.7240 C.3     1  UNL1        0.1076
      6 N          -7.0767  -17.1495   23.1296 N.pl3   1  UNL1       -0.3093
      7 H          -3.5228  -16.3444   22.5859 H       1  UNL1        0.1233
      8 C          -8.5624  -17.3369   23.0423 C.2     1  UNL1        0.0295
      9 C          -9.3170  -17.9016   24.2091 C.2     1  UNL1        0.0120
     10 C         -10.8027  -18.0891   24.1218 C.2     1  UNL1        0.0216
     11 C         -11.5337  -17.7119   22.8675 C.2     1  UNL1        0.1008
     12 N         -12.9841  -17.7822   22.4914 N.2     1  UNL1       -0.1482
     13 N         -13.1259  -17.2609   21.0921 N.2     1  UNL1       -0.1467
     14 C         -11.7631  -16.8684   20.6033 C.2     1  UNL1        0.1198
     15 C         -10.7791  -17.1471   21.7006 C.2     1  UNL1        0.0238
     16 C          -9.2934  -16.9597   21.7880 C.3     1  UNL1        0.0705
     17 C          -6.7184  -19.4750   22.0282 C.3     1  UNL1        0.0211
     18 C          -5.4774  -20.9133   20.2557 C.3     1  UNL1        0.0001
     19 C          -6.4423  -19.8157   20.5937 C.3     1  UNL1        0.0017
@<TRIPOS>BOND
     1    18    19    1
     2    19    17    1
     3     1    17    1
     4     1     2    1
     5     2     3    1
     6     3     4    1
     7     4     5    1
     8     5     6    1
     9     6     8    1
    10     8     9    2
    11     9    10    1
    12    10    11    2
    13    11    12    1
    14    12    13    2
    15    13    14    1
    16    14    15    2
    17    15    16    1
    18     6     1    1
    19    16     8    1
    20    15    11    1
    21     3     7    1
@<TRIPOS>MOLECULE
*****
 19 21 0 0 0
SMALL
GASTEIGER

@<TRIPOS>ATOM
      1 C          -8.4126  -17.4239   23.1339 C.3     1  UNL1        0.0883
      2 C          -9.6569  -17.3042   23.9631 C.3     1  UNL1        0.0885
      3 N         -10.4002  -18.5377   24.3824 N.3     1  UNL1       -0.2947
      4 C          -9.8993  -19.8909   23.9724 C.3     1  UNL1        0.0903
      5 C          -8.6551  -20.0105   23.1432 C.3     1  UNL1        0.1076
      6 N          -7.9117  -18.7770   22.7240 N.pl3   1  UNL1       -0.3093
      7 H         -11.3473  -18.4502   24.0139 H       1  UNL1        0.1233
      8 C          -6.6675  -18.8967   21.8948 C.2     1  UNL1        0.0295
      9 C          -6.7688  -19.0149   20.4030 C.2     1  UNL1        0.0120
     10 C          -5.5246  -19.1346   19.5737 C.2     1  UNL1        0.0216
     11 C          -4.1789  -19.1361   20.2365 C.2     1  UNL1        0.1008
     12 N          -2.7882  -19.2391   19.6841 N.2     1  UNL1       -0.1482
     13 N          -1.8273  -19.1846   20.8346 N.2     1  UNL1       -0.1467
     14 C          -2.6241  -19.0478   22.0980 C.2     1  UNL1        0.1198
     15 C          -4.0776  -19.0178   21.7284 C.2     1  UNL1        0.0238
     16 C          -5.3218  -18.8981   22.5575 C.3     1  UNL1        0.0705
     17 C          -7.6692  -16.1903   22.7146 C.3     1  UNL1        0.0211
     18 C          -5.5340  -15.5066   24.0275 C.3     1  UNL1        0.0001
     19 C          -6.9970  -15.3329   23.7457 C.3     1  UNL1        0.0017
@<TRIPOS>BOND
     1    18    19    1
     2    19    17    1
     3     1    17    1
     4     1     2    1
     5     2     3    1
     6     3     4    1
     7     4     5    1
     8     5     6    1
     9     6     8    1
    10     8     9    2
    11     9    10    1
    12    10    11    2
    13    11    12    1
    14    12    13    2
    15    13    14    1
    16    14    15    2
    17    15    16    1
    18     6     1    1
    19    16     8    1
    20    15    11    1
    21     3     7    1
@<TRIPOS>MOLECULE
*****
 19 21 0 0 0
SMALL
GASTEIGER

@<TRIPOS>ATOM
      1 C          -6.7881  -16.6116   23.5076 C.3     1  UNL1        0.0883
      2 C          -7.8056  -15.8916   24.3422 C.3     1  UNL1        0.0885
      3 N          -7.3762  -15.1483   25.5723 N.3     1  UNL1       -0.2947
      4 C          -5.9294  -15.1250   25.9677 C.3     1  UNL1        0.0903
      5 C          -4.9121  -15.8450   25.1331 C.3     1  UNL1        0.1076
      6 N          -5.3415  -16.5883   23.9030 N.pl3   1  UNL1       -0.3093
      7 H          -7.8890  -15.5537   26.3553 H       1  UNL1        0.1233
      8 C          -4.3241  -17.3083   23.0684 C.2     1  UNL1        0.0295
      9 C          -4.4100  -18.7962   22.8992 C.2     1  UNL1        0.0120
     10 C          -3.3926  -19.5162   22.0646 C.2     1  UNL1        0.0216
     11 C          -2.2892  -18.7482   21.3993 C.2     1  UNL1        0.1008
     12 N          -1.1513  -19.1817   20.5233 N.2     1  UNL1       -0.1482
     13 N          -0.3621  -17.9616   20.1512 N.2     1  UNL1       -0.1467
     14 C          -1.0122  -16.7741   20.7971 C.2     1  UNL1        0.1198
     15 C          -2.2033  -17.2603   21.5685 C.2     1  UNL1        0.0238
     16 C          -3.2207  -16.5403   22.4030 C.3     1  UNL1        0.0705
     17 C          -7.2176  -17.3549   22.2775 C.3     1  UNL1        0.0211
     18 C          -8.3093  -19.6805   22.6647 C.3     1  UNL1        0.0001
     19 C          -8.4372  -18.2273   22.3157 C.3     1  UNL1        0.0017
@<TRIPOS>BOND
     1    18    19    1
     2    19    17    1
     3     1    17    1
     4     1     2    1
     5     2     3    1
     6     3     4    1
     7     4     5    1
     8     5     6    1
     9     6     8    1
    10     8     9    2
    11     9    10    1
    12    10    11    2
    13    11    12    1
    14    12    13    2
    15    13    14    1
    16    14    15    2
    17    15    16    1
    18     6     1    1
    19    16     8    1
    20    15    11    1
    21     3     7    1
@<TRIPOS>MOLECULE
*****
 19 21 0 0 0
SMALL
GASTEIGER

@<TRIPOS>ATOM
      1 C          -7.3740  -15.9886   24.3501 C.3     1  UNL1        0.0883
      2 C          -8.7698  -15.5112   24.6221 C.3     1  UNL1        0.0885
      3 N          -9.9047  -15.9832   23.7624 N.3     1  UNL1       -0.2947
      4 C          -9.6439  -16.9326   22.6308 C.3     1  UNL1        0.0903
      5 C          -8.2482  -17.4099   22.3588 C.3     1  UNL1        0.1076
      6 N          -7.1132  -16.9379   23.2184 N.pl3   1  UNL1       -0.3093
      7 H         -10.3322  -15.1510   23.3561 H       1  UNL1        0.1233
      8 C          -5.7174  -17.4153   22.9464 C.2     1  UNL1        0.0295
      9 C          -4.5484  -16.7039   23.5604 C.2     1  UNL1        0.0120
     10 C          -3.1526  -17.1813   23.2883 C.2     1  UNL1        0.0216
     11 C          -2.9260  -18.3702   22.4022 C.2     1  UNL1        0.1008
     12 N          -1.6739  -19.0652   21.9560 N.2     1  UNL1       -0.1482
     13 N          -2.0692  -20.2062   21.0662 N.2     1  UNL1       -0.1467
     14 C          -3.5656  -20.2164   20.9624 C.2     1  UNL1        0.1198
     15 C          -4.0951  -19.0816   21.7881 C.2     1  UNL1        0.0238
     16 C          -5.4908  -18.6042   22.0602 C.3     1  UNL1        0.0705
     17 C          -6.2391  -15.5166   25.2097 C.3     1  UNL1        0.0211
     18 C          -7.0327  -16.2275   27.5794 C.3     1  UNL1        0.0001
     19 C          -6.4786  -15.1858   26.6531 C.3     1  UNL1        0.0017
@<TRIPOS>BOND
     1    18    19    1
     2    19    17    1
     3     1    17    1
     4     1     2    1
     5     2     3    1
     6     3     4    1
     7     4     5    1
     8     5     6    1
     9     6     8    1
    10     8     9    2
    11     9    10    1
    12    10    11    2
    13    11    12    1
    14    12    13    2
    15    13    14    1
    16    14    15    2
    17    15    16    1
    18     6     1    1
    19    16     8    1
    20    15    11    1
    21     3     7    1
@<TRIPOS>MOLECULE
*****
 19 21 0 0 0
SMALL
GASTEIGER

@<TRIPOS>ATOM
      1 C         -11.5090   -6.5797   17.2065 C.3     1  UNL1        0.0883
      2 C         -11.0509   -8.0041   17.0997 C.3     1  UNL1        0.0885
      3 N          -9.9352   -8.5004   17.9709 N.3     1  UNL1       -0.2947
      4 C          -9.2777   -7.5724   18.9489 C.3     1  UNL1        0.0903
      5 C          -9.7359   -6.1481   19.0557 C.3     1  UNL1        0.1076
      6 N         -10.8515   -5.6518   18.1845 N.pl3   1  UNL1       -0.3093
      7 H          -9.2024   -8.8381   17.3469 H       1  UNL1        0.1233
      8 C         -11.3096   -4.2274   18.2914 C.2     1  UNL1        0.0295
      9 C         -12.3385   -3.8451   19.3137 C.2     1  UNL1        0.0120
     10 C         -12.7966   -2.4208   19.4205 C.2     1  UNL1        0.0216
     11 C         -12.2258   -1.3787   18.5050 C.2     1  UNL1        0.1008
     12 N         -12.4818    0.0937   18.3769 N.2     1  UNL1       -0.1482
     13 N         -11.6111    0.6214   17.2753 N.2     1  UNL1       -0.1467
     14 C         -10.8170   -0.5248   16.7227 C.2     1  UNL1        0.1198
     15 C         -11.1968   -1.7610   17.4826 C.2     1  UNL1        0.0238
     16 C         -10.7388   -3.1853   17.3758 C.3     1  UNL1        0.0705
     17 C         -12.6247   -6.0834   16.3354 C.3     1  UNL1        0.0211
     18 C         -14.3764   -6.7071   18.1499 C.3     1  UNL1        0.0001
     19 C         -14.0509   -6.3121   16.7400 C.3     1  UNL1        0.0017
@<TRIPOS>BOND
     1    18    19    1
     2    19    17    1
     3     1    17    1
     4     1     2    1
     5     2     3    1
     6     3     4    1
     7     4     5    1
     8     5     6    1
     9     6     8    1
    10     8     9    2
    11     9    10    1
    12    10    11    2
    13    11    12    1
    14    12    13    2
    15    13    14    1
    16    14    15    2
    17    15    16    1
    18     6     1    1
    19    16     8    1
    20    15    11    1
    21     3     7    1
