@<TRIPOS>MOLECULE
*****
 29 32 0 0 0
SMALL
GASTEIGER

@<TRIPOS>ATOM
      1 C         -13.9571   -4.8969   18.6536 C.2     1  UNL1        0.0020
      2 C         -15.0348   -5.9226   18.4621 C.2     1  UNL1        0.0130
      3 C         -14.6783   -7.3767   18.3692 C.3     1  UNL1        0.1542
      4 C         -16.1124   -6.9483   18.2707 C.3     1  UNL1        0.0614
      5 C         -17.1900   -7.9740   18.0792 C.3     1  UNL1        0.0725
      6 N         -16.8335   -9.4280   17.9862 N.3     1  UNL1       -0.2972
      7 C         -15.3994   -9.8564   18.0847 C.3     1  UNL1        0.0725
      8 C         -14.3217   -8.8307   18.2762 C.3     1  UNL1        0.0614
      9 O         -13.2440   -7.8050   18.4677 O.3     1  UNL1       -0.4785
     10 C         -12.1664   -6.7793   18.6591 C.ar    1  UNL1        0.1386
     11 C         -10.7322   -7.2077   18.7576 C.ar    1  UNL1        0.0369
     12 C          -9.6546   -6.1820   18.9491 C.ar    1  UNL1        0.0031
     13 C         -10.0111   -4.7280   19.0421 C.ar    1  UNL1        0.0002
     14 C         -11.4453   -4.2996   18.9436 C.ar    1  UNL1        0.0030
     15 C         -12.5230   -5.3253   18.7521 C.ar    1  UNL1        0.0338
     16 H         -17.1783   -9.7587   17.0851 H       1  UNL1        0.1233
     17 C         -15.0266   -0.5348   18.9325 C.ar    1  UNL1        0.0536
     18 C         -15.0528   -1.3935   20.1621 C.ar    1  UNL1        0.0045
     19 C         -14.6963   -2.8476   20.0691 C.ar    1  UNL1        0.0001
     20 C         -14.3136   -3.4429   18.7466 C.ar    1  UNL1       -0.0001
     21 C         -14.2874   -2.5841   17.5169 C.ar    1  UNL1        0.0001
     22 C         -14.6439   -1.1301   17.6099 C.ar    1  UNL1        0.0045
     23 N         -16.8227    1.3404   19.0184 N.am    1  UNL1       -0.2761
     24 C         -15.3831    0.9193   19.0255 C.2     1  UNL1        0.2490
     25 O         -14.2999    1.9521   19.1256 O.2     1  UNL1       -0.2699
     26 C         -17.2791    3.4579   20.4530 C.3     1  UNL1        0.0233
     27 C         -17.1792    2.7945   19.1113 C.3     1  UNL1        0.0938
     28 C         -17.9059    0.3076   18.9183 C.3     1  UNL1        0.0938
     29 C         -18.5888   -0.1858   20.1593 C.3     1  UNL1        0.0233
@<TRIPOS>BOND
     1    26    27    1
     2    27    23    1
     3    23    28    1
     4    28    29    1
     5    23    24   am
     6    24    25    2
     7    24    17    1
     8    17    18   ar
     9    18    19   ar
    10    19    20   ar
    11    20     1    1
    12     1     2    2
    13     2     3    1
    14     3     4    1
    15     4     5    1
    16     5     6    1
    17     6     7    1
    18     7     8    1
    19     3     9    1
    20     9    10    1
    21    10    11   ar
    22    11    12   ar
    23    12    13   ar
    24    13    14   ar
    25    14    15   ar
    26    20    21   ar
    27    21    22   ar
    28    22    17   ar
    29    15     1    1
    30     8     3    1
    31    15    10   ar
    32     6    16    1
@<TRIPOS>MOLECULE
*****
 29 32 0 0 0
SMALL
GASTEIGER

@<TRIPOS>ATOM
      1 C          -7.5753  -17.2038   23.0387 C.2     1  UNL1        0.0020
      2 C          -8.7846  -17.4343   22.1817 C.2     1  UNL1        0.0130
      3 C         -10.1320  -16.9640   22.6438 C.3     1  UNL1        0.1542
      4 C          -9.9939  -17.6647   21.3248 C.3     1  UNL1        0.0614
      5 C         -11.2033  -17.8951   20.4678 C.3     1  UNL1        0.0725
      6 N         -12.5506  -17.4249   20.9300 N.3     1  UNL1       -0.2972
      7 C         -12.6886  -16.7242   22.2490 C.3     1  UNL1        0.0725
      8 C         -11.4793  -16.4938   23.1060 C.3     1  UNL1        0.0614
      9 O         -10.2699  -16.2633   23.9630 O.3     1  UNL1       -0.4785
     10 C          -9.0606  -16.0329   24.8199 C.ar    1  UNL1        0.1386
     11 C          -9.1986  -15.3322   26.1391 C.ar    1  UNL1        0.0369
     12 C          -7.9892  -15.1018   26.9960 C.ar    1  UNL1        0.0031
     13 C          -6.6419  -15.5720   26.5339 C.ar    1  UNL1        0.0002
     14 C          -6.5039  -16.2727   25.2148 C.ar    1  UNL1        0.0030
     15 C          -7.7133  -16.5031   24.3578 C.ar    1  UNL1        0.0338
     16 H         -13.1521  -18.2477   20.9693 H       1  UNL1        0.1233
     17 C          -3.5333  -18.6146   21.6524 C.ar    1  UNL1        0.0536
     18 C          -4.7778  -19.1930   21.0470 C.ar    1  UNL1        0.0045
     19 C          -6.1251  -18.7227   21.5091 C.ar    1  UNL1        0.0001
     20 C          -6.2279  -17.6741   22.5766 C.ar    1  UNL1       -0.0001
     21 C          -4.9834  -17.0956   23.1821 C.ar    1  UNL1        0.0001
     22 C          -3.6360  -17.5658   22.7200 C.ar    1  UNL1        0.0045
     23 N          -1.3926  -18.2553   20.2246 N.am    1  UNL1       -0.2761
     24 C          -2.1859  -19.0848   21.1902 C.2     1  UNL1        0.2490
     25 O          -1.6319  -20.3847   21.6938 O.2     1  UNL1       -0.2699
     26 C           1.1870  -17.9579   20.1397 C.3     1  UNL1        0.0233
     27 C          -0.0453  -18.7255   19.7625 C.3     1  UNL1        0.0938
     28 C          -1.9466  -16.9554   19.7210 C.3     1  UNL1        0.0938
     29 C          -2.7717  -16.9267   18.4687 C.3     1  UNL1        0.0233
@<TRIPOS>BOND
     1    26    27    1
     2    27    23    1
     3    23    28    1
     4    28    29    1
     5    23    24   am
     6    24    25    2
     7    24    17    1
     8    17    18   ar
     9    18    19   ar
    10    19    20   ar
    11    20     1    1
    12     1     2    2
    13     2     3    1
    14     3     4    1
    15     4     5    1
    16     5     6    1
    17     6     7    1
    18     7     8    1
    19     3     9    1
    20     9    10    1
    21    10    11   ar
    22    11    12   ar
    23    12    13   ar
    24    13    14   ar
    25    14    15   ar
    26    20    21   ar
    27    21    22   ar
    28    22    17   ar
    29    15     1    1
    30     8     3    1
    31    15    10   ar
    32     6    16    1
@<TRIPOS>MOLECULE
*****
 29 32 0 0 0
SMALL
GASTEIGER

@<TRIPOS>ATOM
      1 C           6.7164   -3.7513   25.2567 C.2     1  UNL1        0.0020
      2 C           6.3958   -3.1242   26.5812 C.2     1  UNL1        0.0130
      3 C           6.7358   -3.8428   27.8532 C.3     1  UNL1        0.1542
      4 C           6.0753   -2.4971   27.9055 C.3     1  UNL1        0.0614
      5 C           5.7548   -1.8700   29.2299 C.3     1  UNL1        0.0725
      6 N           6.0948   -2.5886   30.5019 N.3     1  UNL1       -0.2972
      7 C           6.7553   -3.9343   30.4495 C.3     1  UNL1        0.0725
      8 C           7.0758   -4.5614   29.1252 C.3     1  UNL1        0.0614
      9 O           7.3963   -5.1886   27.8008 O.3     1  UNL1       -0.4785
     10 C           7.7168   -5.8156   26.4764 C.ar    1  UNL1        0.1386
     11 C           8.3774   -7.1614   26.4240 C.ar    1  UNL1        0.0369
     12 C           8.6979   -7.7885   25.0996 C.ar    1  UNL1        0.0031
     13 C           8.3579   -7.0699   23.8276 C.ar    1  UNL1        0.0002
     14 C           7.6974   -5.7242   23.8800 C.ar    1  UNL1        0.0030
     15 C           7.3768   -5.0970   25.2044 C.ar    1  UNL1        0.0338
     16 H           5.2212   -2.7091   31.0145 H       1  UNL1        0.1233
     17 C           5.6964   -1.5955   21.4407 C.ar    1  UNL1        0.0536
     18 C           4.6573   -2.4262   22.1336 C.ar    1  UNL1        0.0045
     19 C           4.9973   -3.1448   23.4056 C.ar    1  UNL1        0.0001
     20 C           6.3764   -3.0327   23.9847 C.ar    1  UNL1       -0.0001
     21 C           7.4156   -2.2020   23.2918 C.ar    1  UNL1        0.0001
     22 C           7.0756   -1.4834   22.0198 C.ar    1  UNL1        0.0045
     23 N           5.4229   -1.6016   18.8571 N.am    1  UNL1       -0.2761
     24 C           5.3564   -0.8769   20.1687 C.2     1  UNL1        0.2490
     25 O           4.9499    0.5665   20.2083 O.2     1  UNL1       -0.2699
     26 C           3.6586   -0.8156   17.1194 C.3     1  UNL1        0.0233
     27 C           5.0830   -0.8830   17.5851 C.3     1  UNL1        0.0938
     28 C           5.8295   -3.0450   18.8174 C.3     1  UNL1        0.0938
     29 C           4.7826   -4.1177   18.7609 C.3     1  UNL1        0.0233
@<TRIPOS>BOND
     1    26    27    1
     2    27    23    1
     3    23    28    1
     4    28    29    1
     5    23    24   am
     6    24    25    2
     7    24    17    1
     8    17    18   ar
     9    18    19   ar
    10    19    20   ar
    11    20     1    1
    12     1     2    2
    13     2     3    1
    14     3     4    1
    15     4     5    1
    16     5     6    1
    17     6     7    1
    18     7     8    1
    19     3     9    1
    20     9    10    1
    21    10    11   ar
    22    11    12   ar
    23    12    13   ar
    24    13    14   ar
    25    14    15   ar
    26    20    21   ar
    27    21    22   ar
    28    22    17   ar
    29    15     1    1
    30     8     3    1
    31    15    10   ar
    32     6    16    1
@<TRIPOS>MOLECULE
*****
 29 32 0 0 0
SMALL
GASTEIGER

@<TRIPOS>ATOM
      1 C         -15.1351   -5.8308   18.4914 C.2     1  UNL1        0.0020
      2 C         -16.1229   -6.8753   18.9197 C.2     1  UNL1        0.0130
      3 C         -15.8985   -8.3133   18.5569 C.3     1  UNL1        0.1542
      4 C         -17.1106   -7.9197   19.3480 C.3     1  UNL1        0.0614
      5 C         -18.0983   -8.9641   19.7763 C.3     1  UNL1        0.0725
      6 N         -17.8740  -10.4022   19.4135 N.3     1  UNL1       -0.2972
      7 C         -16.6619  -10.7958   18.6224 C.3     1  UNL1        0.0725
      8 C         -15.6742   -9.7514   18.1941 C.3     1  UNL1        0.0614
      9 O         -14.6864   -8.7070   17.7658 O.3     1  UNL1       -0.4785
     10 C         -13.6986   -7.6625   17.3375 C.ar    1  UNL1        0.1386
     11 C         -12.4865   -8.0561   16.5463 C.ar    1  UNL1        0.0369
     12 C         -11.4988   -7.0117   16.1180 C.ar    1  UNL1        0.0031
     13 C         -11.7231   -5.5736   16.4808 C.ar    1  UNL1        0.0002
     14 C         -12.9352   -5.1800   17.2719 C.ar    1  UNL1        0.0030
     15 C         -13.9230   -6.2244   17.7003 C.ar    1  UNL1        0.0338
     16 H         -18.6870  -10.7002   18.8744 H       1  UNL1        0.1233
     17 C         -15.8081   -1.5166   19.5798 C.ar    1  UNL1        0.0536
     18 C         -16.5959   -2.1409   18.4665 C.ar    1  UNL1        0.0045
     19 C         -16.3716   -3.5790   18.1037 C.ar    1  UNL1        0.0001
     20 C         -15.3594   -4.3927   18.8542 C.ar    1  UNL1       -0.0001
     21 C         -14.5715   -3.7684   19.9675 C.ar    1  UNL1        0.0001
     22 C         -14.7958   -2.3303   20.3303 C.ar    1  UNL1        0.0045
     23 N         -15.3271    1.0055   19.1827 N.am    1  UNL1       -0.2761
     24 C         -16.0324   -0.0785   19.9425 C.2     1  UNL1        0.2490
     25 O         -16.9622    0.2755   21.0652 O.2     1  UNL1       -0.2699
     26 C         -15.6970    3.4754   18.4665 C.3     1  UNL1        0.0233
     27 C         -15.5514    2.4436   19.5455 C.3     1  UNL1        0.0938
     28 C         -14.3974    0.6515   18.0600 C.3     1  UNL1        0.0938
     29 C         -12.9383    0.4370   18.3339 C.3     1  UNL1        0.0233
@<TRIPOS>BOND
     1    26    27    1
     2    27    23    1
     3    23    28    1
     4    28    29    1
     5    23    24   am
     6    24    25    2
     7    24    17    1
     8    17    18   ar
     9    18    19   ar
    10    19    20   ar
    11    20     1    1
    12     1     2    2
    13     2     3    1
    14     3     4    1
    15     4     5    1
    16     5     6    1
    17     6     7    1
    18     7     8    1
    19     3     9    1
    20     9    10    1
    21    10    11   ar
    22    11    12   ar
    23    12    13   ar
    24    13    14   ar
    25    14    15   ar
    26    20    21   ar
    27    21    22   ar
    28    22    17   ar
    29    15     1    1
    30     8     3    1
    31    15    10   ar
    32     6    16    1
@<TRIPOS>MOLECULE
*****
 29 32 0 0 0
SMALL
GASTEIGER

@<TRIPOS>ATOM
      1 C           2.2958   -0.0502   22.4993 C.2     1  UNL1        0.0020
      2 C           3.1610   -1.2690   22.3722 C.2     1  UNL1        0.0130
      3 C           3.4429   -1.8508   21.0187 C.3     1  UNL1        0.1542
      4 C           4.0261   -2.4877   22.2451 C.3     1  UNL1        0.0614
      5 C           4.8913   -3.7064   22.1180 C.3     1  UNL1        0.0725
      6 N           5.1732   -4.2883   20.7644 N.3     1  UNL1       -0.2972
      7 C           4.5899   -3.6513   19.5380 C.3     1  UNL1        0.0725
      8 C           3.7248   -2.4326   19.6651 C.3     1  UNL1        0.0614
      9 O           2.8596   -1.2138   19.7922 O.3     1  UNL1       -0.4785
     10 C           1.9945    0.0049   19.9193 C.ar    1  UNL1        0.1386
     11 C           1.4112    0.6419   18.6929 C.ar    1  UNL1        0.0369
     12 C           0.5461    1.8606   18.8200 C.ar    1  UNL1        0.0031
     13 C           0.2642    2.4424   20.1735 C.ar    1  UNL1        0.0002
     14 C           0.8474    1.8055   21.3999 C.ar    1  UNL1        0.0030
     15 C           1.7126    0.5867   21.2729 C.ar    1  UNL1        0.0338
     16 H           4.8394   -5.2519   20.7828 H       1  UNL1        0.1233
     17 C           1.4502    1.6953   26.5598 C.ar    1  UNL1        0.0536
     18 C           0.3316    1.4996   25.5798 C.ar    1  UNL1        0.0045
     19 C           0.6135    0.9177   24.2263 C.ar    1  UNL1        0.0001
     20 C           2.0139    0.5316   23.8528 C.ar    1  UNL1       -0.0001
     21 C           3.1326    0.7273   24.8328 C.ar    1  UNL1        0.0001
     22 C           2.8507    1.3091   26.1863 C.ar    1  UNL1        0.0045
     23 N           0.6028    1.4105   28.9993 N.am    1  UNL1       -0.2761
     24 C           1.1683    2.2771   27.9134 C.2     1  UNL1        0.2490
     25 O           1.4519    3.7256   28.1810 O.2     1  UNL1       -0.2699
     26 C           1.3345    1.8624   31.4509 C.3     1  UNL1        0.0233
     27 C           0.3209    1.9923   30.3528 C.3     1  UNL1        0.0938
     28 C           0.3192   -0.0380   28.7317 C.3     1  UNL1        0.0938
     29 C          -1.0950   -0.5380   28.7328 C.3     1  UNL1        0.0233
@<TRIPOS>BOND
     1    26    27    1
     2    27    23    1
     3    23    28    1
     4    28    29    1
     5    23    24   am
     6    24    25    2
     7    24    17    1
     8    17    18   ar
     9    18    19   ar
    10    19    20   ar
    11    20     1    1
    12     1     2    2
    13     2     3    1
    14     3     4    1
    15     4     5    1
    16     5     6    1
    17     6     7    1
    18     7     8    1
    19     3     9    1
    20     9    10    1
    21    10    11   ar
    22    11    12   ar
    23    12    13   ar
    24    13    14   ar
    25    14    15   ar
    26    20    21   ar
    27    21    22   ar
    28    22    17   ar
    29    15     1    1
    30     8     3    1
    31    15    10   ar
    32     6    16    1
@<TRIPOS>MOLECULE
*****
 29 32 0 0 0
SMALL
GASTEIGER

@<TRIPOS>ATOM
      1 C          -8.7241  -18.4053   21.6235 C.2     1  UNL1        0.0020
      2 C          -9.4667  -17.4499   20.7369 C.2     1  UNL1        0.0130
      3 C         -10.9376  -17.2321   20.9347 C.3     1  UNL1        0.1542
      4 C         -10.2093  -16.4946   19.8504 C.3     1  UNL1        0.0614
      5 C         -10.9519  -15.5394   18.9640 C.3     1  UNL1        0.0725
      6 N         -12.4228  -15.3215   19.1617 N.3     1  UNL1       -0.2972
      7 C         -13.1510  -16.0590   20.2460 C.3     1  UNL1        0.0725
      8 C         -12.4084  -17.0143   21.1325 C.3     1  UNL1        0.0614
      9 O         -11.6658  -17.9696   22.0191 O.3     1  UNL1       -0.4785
     10 C         -10.9233  -18.9249   22.9056 C.ar    1  UNL1        0.1386
     11 C         -11.6515  -19.6625   23.9899 C.ar    1  UNL1        0.0369
     12 C         -10.9089  -20.6178   24.8764 C.ar    1  UNL1        0.0031
     13 C          -9.4381  -20.8356   24.6786 C.ar    1  UNL1        0.0002
     14 C          -8.7098  -20.0981   23.5944 C.ar    1  UNL1        0.0030
     15 C          -9.4524  -19.1428   22.7078 C.ar    1  UNL1        0.0338
     16 H         -12.8776  -15.5666   18.2823 H       1  UNL1        0.1233
     17 C          -4.3115  -19.0588   21.0301 C.ar    1  UNL1        0.0536
     18 C          -5.2838  -19.5043   19.9784 C.ar    1  UNL1        0.0045
     19 C          -6.7547  -19.2865   20.1762 C.ar    1  UNL1        0.0001
     20 C          -7.2533  -18.6231   21.4257 C.ar    1  UNL1       -0.0001
     21 C          -6.2810  -18.1776   22.4775 C.ar    1  UNL1        0.0001
     22 C          -4.8101  -18.3954   22.2798 C.ar    1  UNL1        0.0045
     23 N          -2.0451  -18.3144   20.0010 N.am    1  UNL1       -0.2761
     24 C          -2.8407  -19.2766   20.8323 C.2     1  UNL1        0.2490
     25 O          -2.1654  -20.4568   21.4659 O.2     1  UNL1       -0.2699
     26 C           0.3893  -17.4077   20.0422 C.3     1  UNL1        0.0233
     27 C          -0.5743  -18.5322   19.8033 C.3     1  UNL1        0.0938
     28 C          -2.7204  -17.1342   19.3675 C.3     1  UNL1        0.0938
     29 C          -2.7450  -16.9968   17.8740 C.3     1  UNL1        0.0233
@<TRIPOS>BOND
     1    26    27    1
     2    27    23    1
     3    23    28    1
     4    28    29    1
     5    23    24   am
     6    24    25    2
     7    24    17    1
     8    17    18   ar
     9    18    19   ar
    10    19    20   ar
    11    20     1    1
    12     1     2    2
    13     2     3    1
    14     3     4    1
    15     4     5    1
    16     5     6    1
    17     6     7    1
    18     7     8    1
    19     3     9    1
    20     9    10    1
    21    10    11   ar
    22    11    12   ar
    23    12    13   ar
    24    13    14   ar
    25    14    15   ar
    26    20    21   ar
    27    21    22   ar
    28    22    17   ar
    29    15     1    1
    30     8     3    1
    31    15    10   ar
    32     6    16    1
@<TRIPOS>MOLECULE
*****
 29 32 0 0 0
SMALL
GASTEIGER

@<TRIPOS>ATOM
      1 C           6.6141   -3.8937   24.7551 C.2     1  UNL1        0.0020
      2 C           7.2226   -5.2415   25.0067 C.2     1  UNL1        0.0130
      3 C           7.4571   -5.7078   26.4130 C.3     1  UNL1        0.1542
      4 C           7.8310   -6.5893   25.2583 C.3     1  UNL1        0.0614
      5 C           8.4394   -7.9370   25.5099 C.3     1  UNL1        0.0725
      6 N           8.6739   -8.4033   26.9162 N.3     1  UNL1       -0.2972
      7 C           8.3000   -7.5219   28.0708 C.3     1  UNL1        0.0725
      8 C           7.6916   -6.1742   27.8192 C.3     1  UNL1        0.0614
      9 O           7.0831   -4.8264   27.5677 O.3     1  UNL1       -0.4785
     10 C           6.4747   -3.4786   27.3160 C.ar    1  UNL1        0.1386
     11 C           6.1007   -2.5971   28.4707 C.ar    1  UNL1        0.0369
     12 C           5.4923   -1.2494   28.2191 C.ar    1  UNL1        0.0031
     13 C           5.2578   -0.7830   26.8129 C.ar    1  UNL1        0.0002
     14 C           5.6317   -1.6644   25.6582 C.ar    1  UNL1        0.0030
     15 C           6.2402   -3.0123   25.9098 C.ar    1  UNL1        0.0338
     16 H           9.6727   -8.5920   27.0012 H       1  UNL1        0.1233
     17 C           5.9106   -2.4947   20.5364 C.ar    1  UNL1        0.0536
     18 C           4.8390   -3.2507   21.2644 C.ar    1  UNL1        0.0045
     19 C           5.0735   -3.7171   22.6706 C.ar    1  UNL1        0.0001
     20 C           6.3796   -3.4274   23.3489 C.ar    1  UNL1       -0.0001
     21 C           7.4513   -2.6713   22.6209 C.ar    1  UNL1        0.0001
     22 C           7.2168   -2.2050   21.2147 C.ar    1  UNL1        0.0045
     23 N           5.0021   -0.7121   18.8790 N.am    1  UNL1       -0.2761
     24 C           5.6761   -2.0284   19.1301 C.2     1  UNL1        0.2490
     25 O           6.1156   -2.8784   17.9750 O.2     1  UNL1       -0.2699
     26 C           3.6468   -0.8310   16.6656 C.3     1  UNL1        0.0233
     27 C           4.7676   -0.2457   17.4728 C.3     1  UNL1        0.0938
     28 C           4.5626    0.1380   20.0342 C.3     1  UNL1        0.0938
     29 C           3.1497    0.0557   20.5311 C.3     1  UNL1        0.0233
@<TRIPOS>BOND
     1    26    27    1
     2    27    23    1
     3    23    28    1
     4    28    29    1
     5    23    24   am
     6    24    25    2
     7    24    17    1
     8    17    18   ar
     9    18    19   ar
    10    19    20   ar
    11    20     1    1
    12     1     2    2
    13     2     3    1
    14     3     4    1
    15     4     5    1
    16     5     6    1
    17     6     7    1
    18     7     8    1
    19     3     9    1
    20     9    10    1
    21    10    11   ar
    22    11    12   ar
    23    12    13   ar
    24    13    14   ar
    25    14    15   ar
    26    20    21   ar
    27    21    22   ar
    28    22    17   ar
    29    15     1    1
    30     8     3    1
    31    15    10   ar
    32     6    16    1
@<TRIPOS>MOLECULE
*****
 29 32 0 0 0
SMALL
GASTEIGER

@<TRIPOS>ATOM
      1 C           5.9014   -2.3599   30.3626 C.2     1  UNL1        0.0020
      2 C           6.5191   -3.7128   30.1666 C.2     1  UNL1        0.0130
      3 C           6.6335   -4.2923   28.7878 C.3     1  UNL1        0.1542
      4 C           7.1367   -5.0655   29.9705 C.3     1  UNL1        0.0614
      5 C           7.7544   -6.4183   29.7744 C.3     1  UNL1        0.0725
      6 N           7.8688   -6.9978   28.3956 N.3     1  UNL1       -0.2972
      7 C           7.3656   -6.2246   27.2129 C.3     1  UNL1        0.0725
      8 C           6.7480   -4.8718   27.4090 C.3     1  UNL1        0.0614
      9 O           6.1303   -3.5190   27.6050 O.3     1  UNL1       -0.4785
     10 C           5.5126   -2.1662   27.8011 C.ar    1  UNL1        0.1386
     11 C           5.0094   -1.3929   26.6184 C.ar    1  UNL1        0.0369
     12 C           4.3917   -0.0401   26.8145 C.ar    1  UNL1        0.0031
     13 C           4.2773    0.5394   28.1933 C.ar    1  UNL1        0.0002
     14 C           4.7805   -0.2339   29.3760 C.ar    1  UNL1        0.0030
     15 C           5.3982   -1.5867   29.1799 C.ar    1  UNL1        0.0338
     16 H           7.3627   -7.8833   28.4055 H       1  UNL1        0.1233
     17 C           5.5581   -0.6214   34.4990 C.ar    1  UNL1        0.0536
     18 C           6.6883   -0.2086   33.6034 C.ar    1  UNL1        0.0045
     19 C           6.8028   -0.7882   32.2246 C.ar    1  UNL1        0.0001
     20 C           5.7869   -1.7804   31.7414 C.ar    1  UNL1       -0.0001
     21 C           4.6566   -2.1932   32.6370 C.ar    1  UNL1        0.0001
     22 C           4.5422   -1.6137   34.0158 C.ar    1  UNL1        0.0045
     23 N           4.4738    1.0706   36.1456 N.am    1  UNL1       -0.2761
     24 C           5.4436   -0.0419   35.8778 C.2     1  UNL1        0.2490
     25 O           6.2990   -0.5749   36.9888 O.2     1  UNL1       -0.2699
     26 C           3.4126    1.0430   38.5170 C.3     1  UNL1        0.0233
     27 C           4.3594    1.6502   37.5244 C.3     1  UNL1        0.0938
     28 C           3.6184    1.6037   35.0347 C.3     1  UNL1        0.0938
     29 C           2.7592    2.8117   35.2632 C.3     1  UNL1        0.0233
@<TRIPOS>BOND
     1    26    27    1
     2    27    23    1
     3    23    28    1
     4    28    29    1
     5    23    24   am
     6    24    25    2
     7    24    17    1
     8    17    18   ar
     9    18    19   ar
    10    19    20   ar
    11    20     1    1
    12     1     2    2
    13     2     3    1
    14     3     4    1
    15     4     5    1
    16     5     6    1
    17     6     7    1
    18     7     8    1
    19     3     9    1
    20     9    10    1
    21    10    11   ar
    22    11    12   ar
    23    12    13   ar
    24    13    14   ar
    25    14    15   ar
    26    20    21   ar
    27    21    22   ar
    28    22    17   ar
    29    15     1    1
    30     8     3    1
    31    15    10   ar
    32     6    16    1
@<TRIPOS>MOLECULE
*****
 29 32 0 0 0
SMALL
GASTEIGER

@<TRIPOS>ATOM
      1 C           4.2168    0.4626   34.0266 C.2     1  UNL1        0.0020
      2 C           4.3135    0.7394   35.4977 C.2     1  UNL1        0.0130
      3 C           3.3798    1.7229   36.1388 C.3     1  UNL1        0.1542
      4 C           4.4102    1.0163   36.9688 C.3     1  UNL1        0.0614
      5 C           4.5069    1.2931   38.4398 C.3     1  UNL1        0.0725
      6 N           3.5732    2.2766   39.0809 N.3     1  UNL1       -0.2972
      7 C           2.5427    2.9832   38.2509 C.3     1  UNL1        0.0725
      8 C           2.4461    2.7063   36.7799 C.3     1  UNL1        0.0614
      9 O           2.3493    2.4295   35.3087 O.3     1  UNL1       -0.4785
     10 C           2.2527    2.1527   33.8377 C.ar    1  UNL1        0.1386
     11 C           1.2222    2.8593   33.0077 C.ar    1  UNL1        0.0369
     12 C           1.1255    2.5825   31.5366 C.ar    1  UNL1        0.0031
     13 C           2.0592    1.5990   30.8956 C.ar    1  UNL1        0.0002
     14 C           3.0897    0.8924   31.7256 C.ar    1  UNL1        0.0030
     15 C           3.1864    1.1692   33.1967 C.ar    1  UNL1        0.0338
     16 H           4.1536    2.9988   39.5073 H       1  UNL1        0.1233
     17 C           7.0180   -2.4878   32.1035 C.ar    1  UNL1        0.0536
     18 C           7.3830   -1.0340   32.1598 C.ar    1  UNL1        0.0045
     19 C           6.4493   -0.0505   32.8009 C.ar    1  UNL1        0.0001
     20 C           5.1505   -0.5208   33.3856 C.ar    1  UNL1       -0.0001
     21 C           4.7854   -1.9747   33.3292 C.ar    1  UNL1        0.0001
     22 C           5.7192   -2.9582   32.6882 C.ar    1  UNL1        0.0045
     23 N           7.6821   -3.9647   30.0718 N.am    1  UNL1       -0.2761
     24 C           7.9517   -3.4712   31.4624 C.2     1  UNL1        0.2490
     25 O           9.1551   -3.9612   32.2120 O.2     1  UNL1       -0.2699
     26 C           8.1302   -6.3226   29.0770 C.3     1  UNL1        0.0233
     27 C           8.6159   -4.9481   29.4308 C.3     1  UNL1        0.0938
     28 C           6.4787   -3.4747   29.3222 C.3     1  UNL1        0.0938
     29 C           6.6221   -2.9834   27.9123 C.3     1  UNL1        0.0233
@<TRIPOS>BOND
     1    26    27    1
     2    27    23    1
     3    23    28    1
     4    28    29    1
     5    23    24   am
     6    24    25    2
     7    24    17    1
     8    17    18   ar
     9    18    19   ar
    10    19    20   ar
    11    20     1    1
    12     1     2    2
    13     2     3    1
    14     3     4    1
    15     4     5    1
    16     5     6    1
    17     6     7    1
    18     7     8    1
    19     3     9    1
    20     9    10    1
    21    10    11   ar
    22    11    12   ar
    23    12    13   ar
    24    13    14   ar
    25    14    15   ar
    26    20    21   ar
    27    21    22   ar
    28    22    17   ar
    29    15     1    1
    30     8     3    1
    31    15    10   ar
    32     6    16    1
