@<TRIPOS>MOLECULE
*****
 33 36 0 0 0
SMALL
GASTEIGER

@<TRIPOS>ATOM
      1 C          -8.6757  -16.6719   22.5150 C.3     1  UNL1        0.1244
      2 N          -7.8016  -15.5329   22.0808 N.3     1  UNL1       -0.2823
      3 C          -8.0412  -14.5343   20.9873 C.3     1  UNL1        0.1560
      4 C          -9.2140  -14.4282   20.0582 C.2     1  UNL1        0.2455
      5 O          -9.1563  -13.3077   19.0626 O.2     1  UNL1       -0.2730
      6 N         -10.4369  -15.2944   19.9930 N.am    1  UNL1       -0.2560
      7 C         -11.4403  -14.9256   18.9408 C.3     1  UNL1        0.1200
      8 C         -10.7890  -16.4807   20.8408 C.ar    1  UNL1        0.0515
      9 C         -12.1123  -17.0647   20.4435 C.ar    1  UNL1        0.0146
     10 C         -12.6517  -18.2619   21.1686 C.ar    1  UNL1        0.0013
     11 C         -11.8679  -18.8749   22.2911 C.ar    1  UNL1       -0.0002
     12 C         -10.5447  -18.2908   22.6884 C.ar    1  UNL1       -0.0014
     13 C         -10.0053  -17.0937   21.9632 C.ar    1  UNL1        0.0118
     14 H          -6.9135  -15.9711   21.8366 H       1  UNL1        0.1243
     15 C          -9.0279  -17.8582   23.3629 C.ar    1  UNL1       -0.0019
     16 C          -9.6789  -17.6581   24.6993 C.ar    1  UNL1       -0.0026
     17 C         -10.0310  -18.8443   25.5471 C.ar    1  UNL1       -0.0003
     18 C          -9.7321  -20.2306   25.0586 C.ar    1  UNL1       -0.0000
     19 C          -9.0810  -20.4308   23.7220 C.ar    1  UNL1       -0.0003
     20 C          -8.7289  -19.2445   22.8743 C.ar    1  UNL1       -0.0026
     21 C          -7.5029  -16.7781   23.4442 C.3     1  UNL1        0.2256
     22 C          -7.1392  -15.6219   24.3279 C.2     1  UNL1        0.0920
     23 O          -8.1054  -15.1412   25.3698 O.co2   1  UNL1       -0.5455
     24 O          -5.8093  -14.9464   24.1697 O.co2   1  UNL1       -0.5455
     25 O          -6.6940  -18.0404   23.4896 O.3     1  UNL1       -0.4426
     26 C          -2.0507  -16.3046   21.9318 C.3     1  UNL1        0.0523
     27 C          -3.1558  -17.3151   21.8449 C.ar    1  UNL1        0.0652
     28 C          -3.0443  -18.4684   20.8922 C.ar    1  UNL1        0.0297
     29 C          -4.1494  -19.4789   20.8053 C.ar    1  UNL1        0.0652
     30 C          -4.0379  -20.6322   19.8525 C.3     1  UNL1        0.0523
     31 N          -5.3659  -19.3363   21.6711 N.ar    1  UNL1       -0.1986
     32 C          -5.4774  -18.1830   22.6238 C.ar    1  UNL1        0.3196
     33 N          -4.3723  -17.1725   22.7107 N.ar    1  UNL1       -0.1986
@<TRIPOS>UNITY_ATOM_ATTR
23 1
charge -1
@<TRIPOS>BOND
     1    26    27    1
     2    27    28   ar
     3    28    29   ar
     4    29    30    1
     5    29    31   ar
     6    31    32   ar
     7    32    25    1
     8    21    25    1
     9    21    22    1
    10    22    23   ar
    11    22    24   ar
    12    21     1    1
    13     1    15    1
    14    15    16   ar
    15    16    17   ar
    16    17    18   ar
    17    18    19   ar
    18    19    20   ar
    19     1     2    1
    20     2     3    1
    21     3     4    1
    22     4     5    2
    23     4     6   am
    24     6     7    1
    25     6     8    1
    26     8     9   ar
    27     9    10   ar
    28    10    11   ar
    29    11    12   ar
    30    12    13   ar
    31    32    33   ar
    32    33    27   ar
    33    13     1    1
    34    20    15   ar
    35    13     8   ar
    36     2    14    1
@<TRIPOS>MOLECULE
*****
 33 36 0 0 0
SMALL
GASTEIGER

@<TRIPOS>ATOM
      1 C          -6.7818  -18.0045   22.4492 C.3     1  UNL1        0.1244
      2 N          -6.0586  -16.9894   23.2838 N.3     1  UNL1       -0.2823
      3 C          -4.5811  -16.8235   23.4824 C.3     1  UNL1        0.1560
      4 C          -3.4619  -17.6317   22.8957 C.2     1  UNL1        0.2455
      5 O          -2.0778  -17.2105   23.2917 O.2     1  UNL1       -0.2730
      6 N          -3.5439  -18.8055   21.9653 N.am    1  UNL1       -0.2560
      7 C          -2.2309  -19.4028   21.5539 C.3     1  UNL1        0.1200
      8 C          -4.7652  -19.4609   21.3919 C.ar    1  UNL1        0.0515
      9 C          -4.4023  -20.6113   20.5003 C.ar    1  UNL1        0.0146
     10 C          -5.4805  -21.4052   19.8241 C.ar    1  UNL1        0.0013
     11 C          -6.9215  -21.0488   20.0395 C.ar    1  UNL1       -0.0002
     12 C          -7.2844  -19.8984   20.9310 C.ar    1  UNL1       -0.0014
     13 C          -6.2063  -19.1045   21.6072 C.ar    1  UNL1        0.0118
     14 H          -6.4298  -17.1209   24.2247 H       1  UNL1        0.1243
     15 C          -8.0032  -18.6600   21.8758 C.ar    1  UNL1       -0.0019
     16 C          -8.6790  -19.7711   22.6232 C.ar    1  UNL1       -0.0026
     17 C          -9.9003  -20.4265   22.0498 C.ar    1  UNL1       -0.0003
     18 C         -10.4459  -19.9708   20.7291 C.ar    1  UNL1       -0.0000
     19 C          -9.7701  -18.8595   19.9815 C.ar    1  UNL1       -0.0003
     20 C          -8.5488  -18.2042   20.5550 C.ar    1  UNL1       -0.0026
     21 C          -7.9010  -17.1963   23.0360 C.3     1  UNL1        0.2256
     22 C          -7.9727  -15.7196   22.7824 C.2     1  UNL1        0.0920
     23 O          -8.0066  -14.7614   23.9360 O.co2   1  UNL1       -0.5455
     24 O          -8.0105  -15.2012   21.3754 O.co2   1  UNL1       -0.5455
     25 O          -8.9484  -17.8648   23.8762 O.3     1  UNL1       -0.4426
     26 C         -12.6646  -15.9494   20.7904 C.3     1  UNL1        0.0523
     27 C         -12.2597  -16.7049   22.0214 C.ar    1  UNL1        0.0652
     28 C         -13.3081  -17.2581   22.9406 C.ar    1  UNL1        0.0297
     29 C         -12.9033  -18.0135   24.1716 C.ar    1  UNL1        0.0652
     30 C         -13.9517  -18.5668   25.0908 C.3     1  UNL1        0.0523
     31 N         -11.4501  -18.2158   24.4834 N.ar    1  UNL1       -0.1986
     32 C         -10.4017  -17.6625   23.5643 C.ar    1  UNL1        0.3196
     33 N         -10.8065  -16.9071   22.3332 N.ar    1  UNL1       -0.1986
@<TRIPOS>UNITY_ATOM_ATTR
23 1
charge -1
@<TRIPOS>BOND
     1    26    27    1
     2    27    28   ar
     3    28    29   ar
     4    29    30    1
     5    29    31   ar
     6    31    32   ar
     7    32    25    1
     8    21    25    1
     9    21    22    1
    10    22    23   ar
    11    22    24   ar
    12    21     1    1
    13     1    15    1
    14    15    16   ar
    15    16    17   ar
    16    17    18   ar
    17    18    19   ar
    18    19    20   ar
    19     1     2    1
    20     2     3    1
    21     3     4    1
    22     4     5    2
    23     4     6   am
    24     6     7    1
    25     6     8    1
    26     8     9   ar
    27     9    10   ar
    28    10    11   ar
    29    11    12   ar
    30    12    13   ar
    31    32    33   ar
    32    33    27   ar
    33    13     1    1
    34    20    15   ar
    35    13     8   ar
    36     2    14    1
@<TRIPOS>MOLECULE
*****
 33 36 0 0 0
SMALL
GASTEIGER

@<TRIPOS>ATOM
      1 C          -6.7844  -18.0059   22.4487 C.3     1  UNL1        0.1244
      2 N          -6.0627  -16.9916   23.2855 N.3     1  UNL1       -0.2823
      3 C          -4.5854  -16.8251   23.4857 C.3     1  UNL1        0.1560
      4 C          -3.4652  -17.6315   22.8986 C.2     1  UNL1        0.2455
      5 O          -2.0817  -17.2100   23.2964 O.2     1  UNL1       -0.2730
      6 N          -3.5456  -18.8038   21.9662 N.am    1  UNL1       -0.2560
      7 C          -2.2318  -19.3995   21.5549 C.3     1  UNL1        0.1200
      8 C          -4.7659  -19.4592   21.3907 C.ar    1  UNL1        0.0515
      9 C          -4.4015  -20.6078   20.4975 C.ar    1  UNL1        0.0146
     10 C          -5.4785  -21.4014   19.8191 C.ar    1  UNL1        0.0013
     11 C          -6.9200  -21.0463   20.0339 C.ar    1  UNL1       -0.0002
     12 C          -7.2844  -19.8976   20.9270 C.ar    1  UNL1       -0.0014
     13 C          -6.2074  -19.1041   21.6054 C.ar    1  UNL1        0.0118
     14 H          -6.4346  -17.1250   24.2259 H       1  UNL1        0.1243
     15 C          -8.0049  -18.6612   21.8731 C.ar    1  UNL1       -0.0019
     16 C          -8.5496  -18.2037   20.5526 C.ar    1  UNL1       -0.0026
     17 C          -9.7700  -18.8590   19.9771 C.ar    1  UNL1       -0.0003
     18 C         -10.4457  -19.9718   20.7221 C.ar    1  UNL1       -0.0000
     19 C          -9.9009  -20.4294   22.0428 C.ar    1  UNL1       -0.0003
     20 C          -8.6805  -19.7740   22.6182 C.ar    1  UNL1       -0.0026
     21 C          -7.9047  -17.1994   23.0358 C.3     1  UNL1        0.2256
     22 C          -7.9773  -15.7224   22.7845 C.2     1  UNL1        0.0920
     23 O          -8.0105  -14.7658   23.9394 O.co2   1  UNL1       -0.5455
     24 O          -8.0168  -15.2020   21.3783 O.co2   1  UNL1       -0.5455
     25 O          -8.9522  -17.8700   23.8742 O.3     1  UNL1       -0.4426
     26 C         -13.9557  -18.5686   25.0897 C.3     1  UNL1        0.0523
     27 C         -12.9071  -18.0167   24.1700 C.ar    1  UNL1        0.0652
     28 C         -13.3117  -17.2622   22.9383 C.ar    1  UNL1        0.0297
     29 C         -12.2631  -16.7102   22.0186 C.ar    1  UNL1        0.0652
     30 C         -12.6677  -15.9557   20.7869 C.3     1  UNL1        0.0523
     31 N         -10.8100  -16.9128   22.3305 N.ar    1  UNL1       -0.1986
     32 C         -10.4055  -17.6674   23.5623 C.ar    1  UNL1        0.3196
     33 N         -11.4540  -18.2193   24.4819 N.ar    1  UNL1       -0.1986
@<TRIPOS>UNITY_ATOM_ATTR
23 1
charge -1
@<TRIPOS>BOND
     1    26    27    1
     2    27    28   ar
     3    28    29   ar
     4    29    30    1
     5    29    31   ar
     6    31    32   ar
     7    32    25    1
     8    21    25    1
     9    21    22    1
    10    22    23   ar
    11    22    24   ar
    12    21     1    1
    13     1    15    1
    14    15    16   ar
    15    16    17   ar
    16    17    18   ar
    17    18    19   ar
    18    19    20   ar
    19     1     2    1
    20     2     3    1
    21     3     4    1
    22     4     5    2
    23     4     6   am
    24     6     7    1
    25     6     8    1
    26     8     9   ar
    27     9    10   ar
    28    10    11   ar
    29    11    12   ar
    30    12    13   ar
    31    32    33   ar
    32    33    27   ar
    33    13     1    1
    34    20    15   ar
    35    13     8   ar
    36     2    14    1
@<TRIPOS>MOLECULE
*****
 33 36 0 0 0
SMALL
GASTEIGER

@<TRIPOS>ATOM
      1 C           4.8122   -1.8171   22.4946 C.3     1  UNL1        0.1244
      2 N           5.2511   -1.7562   23.9276 N.3     1  UNL1       -0.2823
      3 C           4.5855   -1.0656   25.0810 C.3     1  UNL1        0.1560
      4 C           3.3168   -0.2653   25.0861 C.2     1  UNL1        0.2455
      5 O           2.9110    0.3028   26.4137 O.2     1  UNL1       -0.2730
      6 N           2.4004    0.0420   23.9391 N.am    1  UNL1       -0.2560
      7 C           1.1992    0.8767   24.2714 C.3     1  UNL1        0.1200
      8 C           2.5261   -0.3751   22.5037 C.ar    1  UNL1        0.0515
      9 C           1.3875    0.1480   21.6792 C.ar    1  UNL1        0.0146
     10 C           1.3222   -0.1562   20.2119 C.ar    1  UNL1        0.0013
     11 C           2.3956   -0.9836   19.5690 C.ar    1  UNL1       -0.0002
     12 C           3.5343   -1.5067   20.3935 C.ar    1  UNL1       -0.0014
     13 C           3.5995   -1.2025   21.8608 C.ar    1  UNL1        0.0118
     14 H           6.1860   -1.3500   23.8915 H       1  UNL1        0.1243
     15 C           4.9380   -2.2342   21.0592 C.ar    1  UNL1       -0.0019
     16 C           5.6687   -1.3584   20.0850 C.ar    1  UNL1       -0.0026
     17 C           5.7945   -1.7754   18.6497 C.ar    1  UNL1       -0.0003
     18 C           5.1897   -3.0683   18.1885 C.ar    1  UNL1       -0.0000
     19 C           4.4590   -3.9442   19.1627 C.ar    1  UNL1       -0.0003
     20 C           4.3332   -3.5271   20.5981 C.ar    1  UNL1       -0.0026
     21 C           6.0809   -2.6174   22.4895 C.3     1  UNL1        0.2256
     22 C           7.4051   -1.9231   22.3693 C.2     1  UNL1        0.0920
     23 O           7.5875   -0.5506   22.9466 O.co2   1  UNL1       -0.5455
     24 O           8.5469   -2.6011   21.6718 O.co2   1  UNL1       -0.5455
     25 O           6.0254   -4.1119   22.6045 O.3     1  UNL1       -0.4426
     26 C           7.2232   -4.6998   27.6265 C.3     1  UNL1        0.0523
     27 C           7.3997   -5.1044   26.1929 C.ar    1  UNL1        0.0652
     28 C           8.3516   -6.2076   25.8367 C.ar    1  UNL1        0.0297
     29 C           8.5281   -6.6122   24.4031 C.ar    1  UNL1        0.0652
     30 C           9.4801   -7.7154   24.0470 C.3     1  UNL1        0.0523
     31 N           7.7527   -5.9137   23.3258 N.ar    1  UNL1       -0.1986
     32 C           6.8008   -4.8105   23.6820 C.ar    1  UNL1        0.3196
     33 N           6.6243   -4.4059   25.1156 N.ar    1  UNL1       -0.1986
@<TRIPOS>UNITY_ATOM_ATTR
23 1
charge -1
@<TRIPOS>BOND
     1    26    27    1
     2    27    28   ar
     3    28    29   ar
     4    29    30    1
     5    29    31   ar
     6    31    32   ar
     7    32    25    1
     8    21    25    1
     9    21    22    1
    10    22    23   ar
    11    22    24   ar
    12    21     1    1
    13     1    15    1
    14    15    16   ar
    15    16    17   ar
    16    17    18   ar
    17    18    19   ar
    18    19    20   ar
    19     1     2    1
    20     2     3    1
    21     3     4    1
    22     4     5    2
    23     4     6   am
    24     6     7    1
    25     6     8    1
    26     8     9   ar
    27     9    10   ar
    28    10    11   ar
    29    11    12   ar
    30    12    13   ar
    31    32    33   ar
    32    33    27   ar
    33    13     1    1
    34    20    15   ar
    35    13     8   ar
    36     2    14    1
@<TRIPOS>MOLECULE
*****
 33 36 0 0 0
SMALL
GASTEIGER

@<TRIPOS>ATOM
      1 C           6.9591   -3.5718   26.8109 C.3     1  UNL1        0.1244
      2 N           6.5127   -2.2322   26.3046 N.3     1  UNL1       -0.2823
      3 C           5.9724   -1.0704   27.0845 C.3     1  UNL1        0.1560
      4 C           5.7451   -0.9611   28.5632 C.2     1  UNL1        0.2455
      5 O           5.1872    0.3467   29.0410 O.2     1  UNL1       -0.2730
      6 N           6.0019   -1.9867   29.6271 N.am    1  UNL1       -0.2560
      7 C           5.6669   -1.5689   31.0283 C.3     1  UNL1        0.1200
      8 C           6.5495   -3.3750   29.4753 C.ar    1  UNL1        0.0515
      9 C           6.6488   -4.0727   30.7994 C.ar    1  UNL1        0.0146
     10 C           7.1741   -5.4759   30.8701 C.ar    1  UNL1        0.0013
     11 C           7.6001   -6.1814   29.6168 C.ar    1  UNL1       -0.0002
     12 C           7.5008   -5.4836   28.2927 C.ar    1  UNL1       -0.0014
     13 C           6.9755   -4.0804   28.2220 C.ar    1  UNL1        0.0118
     14 H           5.7822   -2.4461   25.6257 H       1  UNL1        0.1243
     15 C           7.5067   -4.9601   26.6590 C.ar    1  UNL1       -0.0019
     16 C           8.9882   -5.1907   26.7012 C.ar    1  UNL1       -0.0026
     17 C           9.5358   -6.5788   26.5494 C.ar    1  UNL1       -0.0003
     18 C           8.6019   -7.7364   26.3553 C.ar    1  UNL1       -0.0000
     19 C           7.1202   -7.5058   26.3131 C.ar    1  UNL1       -0.0003
     20 C           6.5727   -6.1176   26.4650 C.ar    1  UNL1       -0.0026
     21 C           7.1864   -3.6811   25.3322 C.3     1  UNL1        0.2256
     22 C           8.4080   -3.0683   24.7140 C.2     1  UNL1        0.0920
     23 O           9.1262   -1.9548   25.4171 O.co2   1  UNL1       -0.5455
     24 O           8.9113   -3.5689   23.3926 O.co2   1  UNL1       -0.5455
     25 O           6.1923   -4.4032   24.4720 O.3     1  UNL1       -0.4426
     26 C           4.7235   -3.8374   19.5199 C.3     1  UNL1        0.0523
     27 C           4.6919   -3.3720   20.9455 C.ar    1  UNL1        0.0652
     28 C           3.8943   -2.1583   21.3207 C.ar    1  UNL1        0.0297
     29 C           3.8627   -1.6929   22.7463 C.ar    1  UNL1        0.0652
     30 C           3.0651   -0.4791   23.1216 C.3     1  UNL1        0.0523
     31 N           4.6286   -2.4411   23.7967 N.ar    1  UNL1       -0.1986
     32 C           5.4263   -3.6549   23.4215 C.ar    1  UNL1        0.3196
     33 N           5.4579   -4.1203   21.9959 N.ar    1  UNL1       -0.1986
@<TRIPOS>UNITY_ATOM_ATTR
23 1
charge -1
@<TRIPOS>BOND
     1    26    27    1
     2    27    28   ar
     3    28    29   ar
     4    29    30    1
     5    29    31   ar
     6    31    32   ar
     7    32    25    1
     8    21    25    1
     9    21    22    1
    10    22    23   ar
    11    22    24   ar
    12    21     1    1
    13     1    15    1
    14    15    16   ar
    15    16    17   ar
    16    17    18   ar
    17    18    19   ar
    18    19    20   ar
    19     1     2    1
    20     2     3    1
    21     3     4    1
    22     4     5    2
    23     4     6   am
    24     6     7    1
    25     6     8    1
    26     8     9   ar
    27     9    10   ar
    28    10    11   ar
    29    11    12   ar
    30    12    13   ar
    31    32    33   ar
    32    33    27   ar
    33    13     1    1
    34    20    15   ar
    35    13     8   ar
    36     2    14    1
@<TRIPOS>MOLECULE
*****
 33 36 0 0 0
SMALL
GASTEIGER

@<TRIPOS>ATOM
      1 C          -1.3224    3.3035   23.4317 C.3     1  UNL1        0.1244
      2 N          -1.1014    3.1398   21.9571 N.3     1  UNL1       -0.2823
      3 C          -2.1084    3.2077   20.8474 C.3     1  UNL1        0.1560
      4 C          -3.5849    3.4563   20.9381 C.2     1  UNL1        0.2455
      5 O          -4.3249    3.4638   19.6334 O.2     1  UNL1       -0.2730
      6 N          -4.4191    3.6982   22.1610 N.am    1  UNL1       -0.2560
      7 C          -5.8831    3.9157   21.9175 C.3     1  UNL1        0.1200
      8 C          -3.9829    3.7514   23.5952 C.ar    1  UNL1        0.0515
      9 C          -5.1407    4.0194   24.5105 C.ar    1  UNL1        0.0146
     10 C          -4.9202    4.1117   25.9913 C.ar    1  UNL1        0.0013
     11 C          -3.5421    3.9361   26.5568 C.ar    1  UNL1       -0.0002
     12 C          -2.3843    3.6681   25.6415 C.ar    1  UNL1       -0.0014
     13 C          -2.6048    3.5757   24.1607 C.ar    1  UNL1        0.0118
     14 H          -0.6794    2.2159   21.8630 H       1  UNL1        0.1243
     15 C          -0.8862    3.3567   24.8659 C.ar    1  UNL1       -0.0019
     16 C          -0.8847    2.1075   25.6962 C.ar    1  UNL1       -0.0026
     17 C          -0.4485    2.1606   27.1303 C.ar    1  UNL1       -0.0003
     18 C          -0.0138    3.4630   27.7343 C.ar    1  UNL1       -0.0000
     19 C          -0.0153    4.7123   26.9040 C.ar    1  UNL1       -0.0003
     20 C          -0.4515    4.6591   25.4698 C.ar    1  UNL1       -0.0026
     21 C           0.1541    3.0550   23.3410 C.3     1  UNL1        0.2256
     22 C           1.0829    4.1772   22.9830 C.2     1  UNL1        0.0920
     23 O           0.5668    5.3658   22.2273 O.co2   1  UNL1       -0.5455
     24 O           2.5276    4.1107   23.3806 O.co2   1  UNL1       -0.5455
     25 O           0.7017    1.6844   23.6083 O.3     1  UNL1       -0.4426
     26 C           1.1614    0.6487   18.5371 C.3     1  UNL1        0.0523
     27 C           1.5539    0.3773   19.9592 C.ar    1  UNL1        0.0652
     28 C           2.5688   -0.6833   20.2678 C.ar    1  UNL1        0.0297
     29 C           2.9613   -0.9546   21.6899 C.ar    1  UNL1        0.0652
     30 C           3.9762   -2.0152   21.9985 C.3     1  UNL1        0.0523
     31 N           2.3390   -0.1654   22.8033 N.ar    1  UNL1       -0.1986
     32 C           1.3241    0.8952   22.4947 C.ar    1  UNL1        0.3196
     33 N           0.9316    1.1665   21.0726 N.ar    1  UNL1       -0.1986
@<TRIPOS>UNITY_ATOM_ATTR
23 1
charge -1
@<TRIPOS>BOND
     1    26    27    1
     2    27    28   ar
     3    28    29   ar
     4    29    30    1
     5    29    31   ar
     6    31    32   ar
     7    32    25    1
     8    21    25    1
     9    21    22    1
    10    22    23   ar
    11    22    24   ar
    12    21     1    1
    13     1    15    1
    14    15    16   ar
    15    16    17   ar
    16    17    18   ar
    17    18    19   ar
    18    19    20   ar
    19     1     2    1
    20     2     3    1
    21     3     4    1
    22     4     5    2
    23     4     6   am
    24     6     7    1
    25     6     8    1
    26     8     9   ar
    27     9    10   ar
    28    10    11   ar
    29    11    12   ar
    30    12    13   ar
    31    32    33   ar
    32    33    27   ar
    33    13     1    1
    34    20    15   ar
    35    13     8   ar
    36     2    14    1
@<TRIPOS>MOLECULE
*****
 33 36 0 0 0
SMALL
GASTEIGER

@<TRIPOS>ATOM
      1 C           5.3639   -1.1398   29.8524 C.3     1  UNL1        0.1244
      2 N           5.0829   -0.5888   28.4859 N.3     1  UNL1       -0.2823
      3 C           5.3351   -1.2250   27.1510 C.3     1  UNL1        0.1560
      4 C           5.9306   -2.5691   26.8531 C.2     1  UNL1        0.2455
      5 O           6.0517   -2.9196   25.3997 O.2     1  UNL1       -0.2730
      6 N           6.4210   -3.6090   27.8165 N.am    1  UNL1       -0.2560
      7 C           6.9677   -4.8620   27.1990 C.3     1  UNL1        0.1200
      8 C           6.4370   -3.5618   29.3157 C.ar    1  UNL1        0.0515
      9 C           7.0148   -4.8178   29.8974 C.ar    1  UNL1        0.0146
     10 C           7.1222   -4.9749   31.3853 C.ar    1  UNL1        0.0013
     11 C           6.6518   -3.8759   32.2914 C.ar    1  UNL1       -0.0002
     12 C           6.0739   -2.6199   31.7096 C.ar    1  UNL1       -0.0014
     13 C           5.9665   -2.4628   30.2218 C.ar    1  UNL1        0.0118
     14 H           5.6013    0.2890   28.4526 H       1  UNL1        0.1243
     15 C           5.3799   -1.0924   31.3517 C.ar    1  UNL1       -0.0019
     16 C           6.5699   -0.5307   32.0716 C.ar    1  UNL1       -0.0026
     17 C           6.5859   -0.4833   33.5707 C.ar    1  UNL1       -0.0003
     18 C           5.4120   -0.9978   34.3500 C.ar    1  UNL1       -0.0000
     19 C           4.2219   -1.5596   33.6300 C.ar    1  UNL1       -0.0003
     20 C           4.2059   -1.6069   32.1308 C.ar    1  UNL1       -0.0026
     21 C           4.7684    0.2044   30.1504 C.3     1  UNL1        0.2256
     22 C           5.6046    1.4421   30.0135 C.2     1  UNL1        0.0920
     23 O           5.1457    2.7294   30.6319 O.co2   1  UNL1       -0.5455
     24 O           6.8996    1.3926   29.2583 O.co2   1  UNL1       -0.5455
     25 O           3.3368    0.3107   30.5851 O.3     1  UNL1       -0.4426
     26 C          -1.6156   -0.1865   29.0927 C.3     1  UNL1        0.0523
     27 C          -0.2179    0.2849   28.8204 C.ar    1  UNL1        0.0652
     28 C           0.1014    0.9791   27.5296 C.ar    1  UNL1        0.0297
     29 C           1.4992    1.4505   27.2573 C.ar    1  UNL1        0.0652
     30 C           1.8185    2.1447   25.9665 C.3     1  UNL1        0.0523
     31 N           2.5776    1.2277   28.2758 N.ar    1  UNL1       -0.1986
     32 C           2.2583    0.5335   29.5666 C.ar    1  UNL1        0.3196
     33 N           0.8605    0.0621   29.8389 N.ar    1  UNL1       -0.1986
@<TRIPOS>UNITY_ATOM_ATTR
23 1
charge -1
@<TRIPOS>BOND
     1    26    27    1
     2    27    28   ar
     3    28    29   ar
     4    29    30    1
     5    29    31   ar
     6    31    32   ar
     7    32    25    1
     8    21    25    1
     9    21    22    1
    10    22    23   ar
    11    22    24   ar
    12    21     1    1
    13     1    15    1
    14    15    16   ar
    15    16    17   ar
    16    17    18   ar
    17    18    19   ar
    18    19    20   ar
    19     1     2    1
    20     2     3    1
    21     3     4    1
    22     4     5    2
    23     4     6   am
    24     6     7    1
    25     6     8    1
    26     8     9   ar
    27     9    10   ar
    28    10    11   ar
    29    11    12   ar
    30    12    13   ar
    31    32    33   ar
    32    33    27   ar
    33    13     1    1
    34    20    15   ar
    35    13     8   ar
    36     2    14    1
@<TRIPOS>MOLECULE
*****
 33 36 0 0 0
SMALL
GASTEIGER

@<TRIPOS>ATOM
      1 C           6.7008   -3.7124   25.5669 C.3     1  UNL1        0.1244
      2 N           6.2649   -3.3041   26.9429 N.3     1  UNL1       -0.2823
      3 C           6.3744   -4.0741   28.2255 C.3     1  UNL1        0.1560
      4 C           6.9468   -5.4425   28.4490 C.2     1  UNL1        0.2455
      5 O           6.9101   -5.9404   29.8634 O.2     1  UNL1       -0.2730
      6 N           7.5511   -6.3788   27.4449 N.am    1  UNL1       -0.2560
      7 C           8.0387   -7.6892   27.9881 C.3     1  UNL1        0.1200
      8 C           7.7322   -6.1781   25.9694 C.ar    1  UNL1        0.0515
      9 C           8.3834   -7.3686   25.3303 C.ar    1  UNL1        0.0146
     10 C           8.6562   -7.3724   23.8553 C.ar    1  UNL1        0.0013
     11 C           8.2778   -6.1857   23.0195 C.ar    1  UNL1       -0.0002
     12 C           7.6266   -4.9952   23.6587 C.ar    1  UNL1       -0.0014
     13 C           7.3538   -4.9914   25.1336 C.ar    1  UNL1        0.0118
     14 H           5.2686   -3.1071   26.8474 H       1  UNL1        0.1243
     15 C           6.8819   -3.5116   24.0914 C.ar    1  UNL1       -0.0019
     16 C           8.1629   -2.9359   23.5645 C.ar    1  UNL1       -0.0026
     17 C           8.3440   -2.7351   22.0892 C.ar    1  UNL1       -0.0003
     18 C           7.2442   -3.1100   21.1406 C.ar    1  UNL1       -0.0000
     19 C           5.9631   -3.6858   21.6675 C.ar    1  UNL1       -0.0003
     20 C           5.7821   -3.8866   23.1429 C.ar    1  UNL1       -0.0026
     21 C           6.1284   -2.3440   25.3435 C.3     1  UNL1        0.2256
     22 C           6.9960   -1.1318   25.5097 C.2     1  UNL1        0.0920
     23 O           8.0512   -1.1052   26.5756 O.co2   1  UNL1       -0.5455
     24 O           6.8086    0.0538   24.6102 O.co2   1  UNL1       -0.5455
     25 O           4.6883   -2.1879   24.9537 O.3     1  UNL1       -0.4426
     26 C           1.5534    1.9556   25.0116 C.3     1  UNL1        0.0523
     27 C           2.2390    0.8352   25.7358 C.ar    1  UNL1        0.0652
     28 C           2.0428    0.6662   27.2133 C.ar    1  UNL1        0.0297
     29 C           2.7284   -0.4543   27.9376 C.ar    1  UNL1        0.0652
     30 C           2.5322   -0.6233   29.4151 C.3     1  UNL1        0.0523
     31 N           3.6102   -1.4056   27.1844 N.ar    1  UNL1       -0.1986
     32 C           3.8065   -1.2365   25.7069 C.ar    1  UNL1        0.3196
     33 N           3.1208   -0.1161   24.9827 N.ar    1  UNL1       -0.1986
@<TRIPOS>UNITY_ATOM_ATTR
23 1
charge -1
@<TRIPOS>BOND
     1    26    27    1
     2    27    28   ar
     3    28    29   ar
     4    29    30    1
     5    29    31   ar
     6    31    32   ar
     7    32    25    1
     8    21    25    1
     9    21    22    1
    10    22    23   ar
    11    22    24   ar
    12    21     1    1
    13     1    15    1
    14    15    16   ar
    15    16    17   ar
    16    17    18   ar
    17    18    19   ar
    18    19    20   ar
    19     1     2    1
    20     2     3    1
    21     3     4    1
    22     4     5    2
    23     4     6   am
    24     6     7    1
    25     6     8    1
    26     8     9   ar
    27     9    10   ar
    28    10    11   ar
    29    11    12   ar
    30    12    13   ar
    31    32    33   ar
    32    33    27   ar
    33    13     1    1
    34    20    15   ar
    35    13     8   ar
    36     2    14    1
@<TRIPOS>MOLECULE
*****
 33 36 0 0 0
SMALL
GASTEIGER

@<TRIPOS>ATOM
      1 C           3.1249    0.0261   22.7603 C.3     1  UNL1        0.1244
      2 N           3.4211    0.3189   24.2013 N.3     1  UNL1       -0.2823
      3 C           4.2228   -0.4931   25.1749 C.3     1  UNL1        0.1560
      4 C           4.9264   -1.7984   24.9480 C.2     1  UNL1        0.2455
      5 O           5.6500   -2.3626   26.1345 O.2     1  UNL1       -0.2730
      6 N           5.0018   -2.6139   23.6913 N.am    1  UNL1       -0.2560
      7 C           5.7910   -3.8859   23.7875 C.3     1  UNL1        0.1200
      8 C           4.3925   -2.3258   22.3513 C.ar    1  UNL1        0.0515
      9 C           4.7121   -3.4055   21.3604 C.ar    1  UNL1        0.0146
     10 C           4.1964   -3.3103   19.9551 C.ar    1  UNL1        0.0013
     11 C           3.3610   -2.1354   19.5407 C.ar    1  UNL1       -0.0002
     12 C           3.0414   -1.0556   20.5316 C.ar    1  UNL1       -0.0014
     13 C           3.5571   -1.1509   21.9369 C.ar    1  UNL1        0.0118
     14 H           2.5035    0.4083   24.6378 H       1  UNL1        0.1243
     15 C           2.5155    0.3143   21.4202 C.ar    1  UNL1       -0.0019
     16 C           1.1349   -0.1787   21.1025 C.ar    1  UNL1       -0.0026
     17 C           0.5255    0.1095   19.7625 C.ar    1  UNL1       -0.0003
     18 C           1.2967    0.8906   18.7402 C.ar    1  UNL1       -0.0000
     19 C           2.6774    1.3837   19.0580 C.ar    1  UNL1       -0.0003
     20 C           3.2867    1.0954   20.3980 C.ar    1  UNL1       -0.0026
     21 C           2.4213    1.3313   22.9872 C.3     1  UNL1        0.2256
     22 C           3.2093    2.6057   23.0574 C.2     1  UNL1        0.0920
     23 O           4.7072    2.5587   23.1244 O.co2   1  UNL1       -0.5455
     24 O           2.4996    3.9271   23.0607 O.co2   1  UNL1       -0.5455
     25 O           0.9299    1.3621   23.1439 O.3     1  UNL1       -0.4426
     26 C          -2.6132    3.8450   26.0218 C.3     1  UNL1        0.0523
     27 C          -1.4491    2.9045   25.9209 C.ar    1  UNL1        0.0652
     28 C          -0.8924    2.2647   27.1582 C.ar    1  UNL1        0.0297
     29 C           0.2718    1.3241   27.0574 C.ar    1  UNL1        0.0652
     30 C           0.8285    0.6844   28.2947 C.3     1  UNL1        0.0523
     31 N           0.8791    1.0233   25.7193 N.ar    1  UNL1       -0.1986
     32 C           0.3224    1.6630   24.4820 C.ar    1  UNL1        0.3196
     33 N          -0.8417    2.6036   24.5829 N.ar    1  UNL1       -0.1986
@<TRIPOS>UNITY_ATOM_ATTR
23 1
charge -1
@<TRIPOS>BOND
     1    26    27    1
     2    27    28   ar
     3    28    29   ar
     4    29    30    1
     5    29    31   ar
     6    31    32   ar
     7    32    25    1
     8    21    25    1
     9    21    22    1
    10    22    23   ar
    11    22    24   ar
    12    21     1    1
    13     1    15    1
    14    15    16   ar
    15    16    17   ar
    16    17    18   ar
    17    18    19   ar
    18    19    20   ar
    19     1     2    1
    20     2     3    1
    21     3     4    1
    22     4     5    2
    23     4     6   am
    24     6     7    1
    25     6     8    1
    26     8     9   ar
    27     9    10   ar
    28    10    11   ar
    29    11    12   ar
    30    12    13   ar
    31    32    33   ar
    32    33    27   ar
    33    13     1    1
    34    20    15   ar
    35    13     8   ar
    36     2    14    1
