@<TRIPOS>MOLECULE
*****
 44 49 0 0 0
SMALL
GASTEIGER

@<TRIPOS>ATOM
      1 C           3.2624   -0.3294   25.1515 C.ar    1  UNL1        0.1499
      2 N           3.1464   -0.4184   23.6586 N.ar    1  UNL1       -0.2222
      3 C           2.2133    0.6632   23.2008 C.ar    1  UNL1        0.1476
      4 N           1.7526    1.4207   24.4108 N.ar    1  UNL1       -0.2919
      5 C           2.4009    0.8072   25.6164 C.ar    1  UNL1        0.0894
      6 C           1.8115    0.9390   21.7823 C.ar    1  UNL1        0.0345
      7 C           1.4531   -0.1965   20.8700 C.ar    1  UNL1        0.0030
      8 C           1.0513    0.0794   19.4514 C.ar    1  UNL1        0.0001
      9 C           1.0079    1.4907   18.9451 C.ar    1  UNL1        0.0000
     10 C           1.3664    2.6261   19.8573 C.ar    1  UNL1        0.0001
     11 C           1.7682    2.3503   21.2759 C.ar    1  UNL1        0.0030
     12 C           0.8092    2.5869   24.4146 C.ar    1  UNL1        0.0651
     13 C           1.3385    3.9791   24.5921 C.ar    1  UNL1        0.0176
     14 C           0.3951    5.1453   24.5959 C.ar    1  UNL1        0.0015
     15 C          -1.0775    4.9192   24.4222 C.ar    1  UNL1        0.0001
     16 C          -1.6068    3.5270   24.2446 C.ar    1  UNL1        0.0015
     17 C          -0.6634    2.3608   24.2408 C.ar    1  UNL1        0.0176
     18 N           5.5295   -1.4833   25.6797 N.am    1  UNL1       -0.2995
     19 C           4.0938   -1.2206   26.0259 C.2     1  UNL1        0.2648
     20 O           3.4895   -1.8490   27.2465 O.2     1  UNL1       -0.2684
     21 H           5.9261   -1.0708   24.8786 H       1  UNL1        0.1498
     22 C           6.3609   -2.3744   26.5542 C.3     1  UNL1        0.0912
     23 C           7.1793   -3.4728   25.9431 C.3     1  UNL1        0.0386
     24 C           6.6596   -4.2215   24.7517 C.3     1  UNL1        0.0739
     25 N           5.4176   -1.9807   21.0523 N.pl3   1  UNL1       -0.3049
     26 C           4.4174   -2.8173   21.7936 C.3     1  UNL1        0.1081
     27 C           4.8314   -3.5643   23.0267 C.3     1  UNL1        0.0938
     28 N           6.2456   -3.4746   23.5186 N.3     1  UNL1       -0.2697
     29 C           7.2459   -2.6379   22.7773 C.3     1  UNL1        0.0938
     30 C           6.8318   -1.8910   21.5441 C.3     1  UNL1        0.1081
     31 C           5.4607    1.0190   21.0301 C.3     1  UNL1        0.0332
     32 C           5.0251    0.2661   19.8081 C.ar    1  UNL1        0.0020
     33 C           4.6111    1.0130   18.5749 C.ar    1  UNL1        0.0549
     34 CL          4.6326    2.5128   18.5638 Cl      1  UNL1       -0.0825
     35 C           4.1755    0.2601   17.3528 C.ar    1  UNL1        0.0112
     36 C           4.1539   -1.2397   17.3639 C.ar    1  UNL1        0.0021
     37 C           4.5680   -1.9866   18.5971 C.ar    1  UNL1        0.0143
     38 C           5.0036   -1.2337   19.8191 C.ar    1  UNL1        0.0447
     39 C           2.2197    1.2522   27.0373 C.3     1  UNL1        0.1746
     40 N           1.0269    0.7912   27.8213 N.ar    1  UNL1       -0.2239
     41 C           1.0505   -0.1420   28.9955 C.ar    1  UNL1        0.1976
     42 N          -0.3608   -0.3274   29.4686 N.ar    1  UNL1       -0.2007
     43 C          -1.2566    0.4912   28.5869 C.ar    1  UNL1        0.2210
     44 N          -0.3990    1.1825   27.5688 N.ar    1  UNL1       -0.1448
@<TRIPOS>BOND
     1    31    32    1
     2    32    33   ar
     3    33    34    1
     4    33    35   ar
     5    35    36   ar
     6    36    37   ar
     7    37    38   ar
     8    38    25    1
     9    25    26    1
    10    26    27    1
    11    27    28    1
    12    28    24    1
    13    24    23    1
    14    23    22    1
    15    22    18    1
    16    18    19   am
    17    19    20    2
    18    19     1    1
    19     1     2   ar
    20     2     3   ar
    21     3     6    1
    22     6     7   ar
    23     7     8   ar
    24     8     9   ar
    25     9    10   ar
    26    10    11   ar
    27     3     4   ar
    28     4    12    1
    29    12    13   ar
    30    13    14   ar
    31    14    15   ar
    32    15    16   ar
    33    16    17   ar
    34     4     5   ar
    35     5    39    1
    36    39    40    1
    37    40    41   ar
    38    41    42   ar
    39    42    43   ar
    40    43    44   ar
    41    28    29    1
    42    29    30    1
    43    38    32   ar
    44    30    25    1
    45     5     1   ar
    46    44    40   ar
    47    11     6   ar
    48    17    12   ar
    49    18    21    1
@<TRIPOS>MOLECULE
*****
 44 49 0 0 0
SMALL
GASTEIGER

@<TRIPOS>ATOM
      1 C           5.0587   -2.6305   23.3122 C.ar    1  UNL1        0.1499
      2 N           4.5739   -1.5299   24.2087 N.ar    1  UNL1       -0.2222
      3 C           3.7403   -0.5940   23.3846 C.ar    1  UNL1        0.1476
      4 N           3.7099   -1.1162   21.9787 N.ar    1  UNL1       -0.2919
      5 C           4.5247   -2.3748   21.9339 C.ar    1  UNL1        0.0894
      6 C           3.0570    0.6462   23.8794 C.ar    1  UNL1        0.0345
      7 C           3.8197    1.9340   23.9781 C.ar    1  UNL1        0.0030
      8 C           3.1363    3.1743   24.4729 C.ar    1  UNL1        0.0001
      9 C           1.6903    3.1267   24.8690 C.ar    1  UNL1        0.0000
     10 C           0.9277    1.8388   24.7703 C.ar    1  UNL1        0.0001
     11 C           1.6110    0.5986   24.2755 C.ar    1  UNL1        0.0030
     12 C           2.9909   -0.4898   20.8209 C.ar    1  UNL1        0.0651
     13 C           1.4954   -0.5683   20.7355 C.ar    1  UNL1        0.0176
     14 C           0.7764    0.0581   19.5776 C.ar    1  UNL1        0.0015
     15 C           1.5529    0.7631   18.5052 C.ar    1  UNL1        0.0001
     16 C           3.0484    0.8416   18.5906 C.ar    1  UNL1        0.0015
     17 C           3.7674    0.2152   19.7484 C.ar    1  UNL1        0.0176
     18 N           6.1754   -4.0551   25.1760 N.am    1  UNL1       -0.2995
     19 C           5.9254   -3.7842   23.7219 C.2     1  UNL1        0.2648
     20 O           6.5421   -4.6669   22.6777 O.2     1  UNL1       -0.2684
     21 H           5.7706   -3.4757   25.8614 H       1  UNL1        0.1498
     22 C           7.0420   -5.2088   25.5858 C.3     1  UNL1        0.0912
     23 C           6.6319   -6.0849   26.7321 C.3     1  UNL1        0.0386
     24 C           7.4431   -6.0980   27.9938 C.3     1  UNL1        0.0739
     25 N           6.3831   -3.3292   31.3790 N.pl3   1  UNL1       -0.3049
     26 C           6.2957   -2.8479   29.9610 C.3     1  UNL1        0.1081
     27 C           6.6490   -3.7708   28.8326 C.3     1  UNL1        0.0938
     28 N           7.0898   -5.1751   29.1222 N.3     1  UNL1       -0.2697
     29 C           7.1772   -5.6564   30.5402 C.3     1  UNL1        0.0938
     30 C           6.8239   -4.7334   31.6686 C.3     1  UNL1        0.1081
     31 C           8.4543   -1.4726   32.5031 C.3     1  UNL1        0.0332
     32 C           7.0654   -1.4779   33.0695 C.ar    1  UNL1        0.0020
     33 C           6.7120   -0.5550   34.1979 C.ar    1  UNL1        0.0549
     34 CL          7.7477    0.3733   34.7599 Cl      1  UNL1       -0.0825
     35 C           5.3231   -0.5603   34.7643 C.ar    1  UNL1        0.0112
     36 C           4.2875   -1.4886   34.2023 C.ar    1  UNL1        0.0021
     37 C           4.6409   -2.4115   33.0739 C.ar    1  UNL1        0.0143
     38 C           6.0298   -2.4062   32.5075 C.ar    1  UNL1        0.0447
     39 C           4.7636   -3.2279   20.7236 C.3     1  UNL1        0.1746
     40 N           5.7647   -2.8015   19.6911 N.ar    1  UNL1       -0.2239
     41 C           5.5411   -2.7649   18.2083 C.ar    1  UNL1        0.1976
     42 N           6.8034   -2.2777   17.5610 N.ar    1  UNL1       -0.2007
     43 C           7.8073   -2.0131   18.6438 C.ar    1  UNL1        0.2210
     44 N           7.1653   -2.3368   19.9602 N.ar    1  UNL1       -0.1448
@<TRIPOS>BOND
     1    31    32    1
     2    32    33   ar
     3    33    34    1
     4    33    35   ar
     5    35    36   ar
     6    36    37   ar
     7    37    38   ar
     8    38    25    1
     9    25    26    1
    10    26    27    1
    11    27    28    1
    12    28    24    1
    13    24    23    1
    14    23    22    1
    15    22    18    1
    16    18    19   am
    17    19    20    2
    18    19     1    1
    19     1     2   ar
    20     2     3   ar
    21     3     6    1
    22     6     7   ar
    23     7     8   ar
    24     8     9   ar
    25     9    10   ar
    26    10    11   ar
    27     3     4   ar
    28     4    12    1
    29    12    13   ar
    30    13    14   ar
    31    14    15   ar
    32    15    16   ar
    33    16    17   ar
    34     4     5   ar
    35     5    39    1
    36    39    40    1
    37    40    41   ar
    38    41    42   ar
    39    42    43   ar
    40    43    44   ar
    41    28    29    1
    42    29    30    1
    43    38    32   ar
    44    30    25    1
    45     5     1   ar
    46    44    40   ar
    47    11     6   ar
    48    17    12   ar
    49    18    21    1
@<TRIPOS>MOLECULE
*****
 44 49 0 0 0
SMALL
GASTEIGER

@<TRIPOS>ATOM
      1 C           3.9075   -0.6110   25.4788 C.ar    1  UNL1        0.1499
      2 N           4.0720   -1.0083   24.0417 N.ar    1  UNL1       -0.2222
      3 C           3.2680   -0.0592   23.2034 C.ar    1  UNL1        0.1476
      4 N           2.6065    0.9247   24.1224 N.ar    1  UNL1       -0.2919
      5 C           3.0017    0.5837   25.5286 C.ar    1  UNL1        0.0894
      6 C           3.1466   -0.0888   21.7087 C.ar    1  UNL1        0.0345
      7 C           1.8747   -0.5603   21.0686 C.ar    1  UNL1        0.0030
      8 C           1.7534   -0.5898   19.5738 C.ar    1  UNL1        0.0001
      9 C           2.9041   -0.1478   18.7191 C.ar    1  UNL1        0.0000
     10 C           4.1761    0.3237   19.3592 C.ar    1  UNL1        0.0001
     11 C           4.2973    0.3532   20.8540 C.ar    1  UNL1        0.0030
     12 C           1.7076    2.0517   23.7079 C.ar    1  UNL1        0.0651
     13 C           2.2946    3.3803   23.3333 C.ar    1  UNL1        0.0176
     14 C           1.3957    4.5073   22.9188 C.ar    1  UNL1        0.0015
     15 C          -0.0902    4.3057   22.8790 C.ar    1  UNL1        0.0001
     16 C          -0.6772    2.9772   23.2536 C.ar    1  UNL1        0.0015
     17 C           0.2217    1.8502   23.6680 C.ar    1  UNL1        0.0176
     18 N           6.0198   -1.1967   26.8736 N.am    1  UNL1       -0.2995
     19 C           4.5380   -1.2892   26.6588 C.2     1  UNL1        0.2648
     20 O           3.6870   -2.0599   27.6239 O.2     1  UNL1       -0.2684
     21 H           6.5784   -0.6909   26.2401 H       1  UNL1        0.1498
     22 C           6.6503   -1.8750   28.0536 C.3     1  UNL1        0.0912
     23 C           7.7233   -2.9018   27.8434 C.3     1  UNL1        0.0386
     24 C           8.6671   -2.7740   26.6846 C.3     1  UNL1        0.0739
     25 N           7.0816   -2.8392   22.4737 N.pl3   1  UNL1       -0.3049
     26 C           7.5519   -1.5494   23.0781 C.3     1  UNL1        0.1081
     27 C           8.0803   -1.5277   24.4818 C.3     1  UNL1        0.0938
     28 N           8.1386   -2.7957   25.2810 N.3     1  UNL1       -0.2697
     29 C           7.6684   -4.0855   24.6765 C.3     1  UNL1        0.0938
     30 C           7.1399   -4.1072   23.2728 C.3     1  UNL1        0.1081
     31 C           4.3082   -3.8457   21.9304 C.3     1  UNL1        0.0332
     32 C           5.1665   -3.3642   20.7984 C.ar    1  UNL1        0.0020
     33 C           4.6380   -3.3859   19.3947 C.ar    1  UNL1        0.0549
     34 CL          3.2513   -3.8891   19.1231 Cl      1  UNL1       -0.0825
     35 C           5.4963   -2.9043   18.2627 C.ar    1  UNL1        0.0112
     36 C           6.8830   -2.4011   18.5343 C.ar    1  UNL1        0.0021
     37 C           7.4114   -2.3794   19.9379 C.ar    1  UNL1        0.0143
     38 C           6.5531   -2.8609   21.0700 C.ar    1  UNL1        0.0447
     39 C           2.5675    1.3098   26.7672 C.3     1  UNL1        0.1746
     40 N           1.3765    0.8273   27.5409 N.ar    1  UNL1       -0.2239
     41 C           1.4135   -0.0006   28.7911 C.ar    1  UNL1        0.1976
     42 N          -0.0009   -0.2515   29.2230 N.ar    1  UNL1       -0.2007
     43 C          -0.9121    0.4213   28.2397 C.ar    1  UNL1        0.2210
     44 N          -0.0608    1.0881   27.2000 N.ar    1  UNL1       -0.1448
@<TRIPOS>BOND
     1    31    32    1
     2    32    33   ar
     3    33    34    1
     4    33    35   ar
     5    35    36   ar
     6    36    37   ar
     7    37    38   ar
     8    38    25    1
     9    25    26    1
    10    26    27    1
    11    27    28    1
    12    28    24    1
    13    24    23    1
    14    23    22    1
    15    22    18    1
    16    18    19   am
    17    19    20    2
    18    19     1    1
    19     1     2   ar
    20     2     3   ar
    21     3     6    1
    22     6     7   ar
    23     7     8   ar
    24     8     9   ar
    25     9    10   ar
    26    10    11   ar
    27     3     4   ar
    28     4    12    1
    29    12    13   ar
    30    13    14   ar
    31    14    15   ar
    32    15    16   ar
    33    16    17   ar
    34     4     5   ar
    35     5    39    1
    36    39    40    1
    37    40    41   ar
    38    41    42   ar
    39    42    43   ar
    40    43    44   ar
    41    28    29    1
    42    29    30    1
    43    38    32   ar
    44    30    25    1
    45     5     1   ar
    46    44    40   ar
    47    11     6   ar
    48    17    12   ar
    49    18    21    1
@<TRIPOS>MOLECULE
*****
 44 49 0 0 0
SMALL
GASTEIGER

@<TRIPOS>ATOM
      1 C           3.0952    0.1784   25.7079 C.ar    1  UNL1        0.1499
      2 N           3.2713   -0.1029   24.2451 N.ar    1  UNL1       -0.2222
      3 C           2.3482    0.8025   23.4846 C.ar    1  UNL1        0.1476
      4 N           1.6017    1.6433   24.4774 N.ar    1  UNL1       -0.2919
      5 C           2.0633    1.2576   25.8515 C.ar    1  UNL1        0.0894
      6 C           2.1981    0.8574   21.9932 C.ar    1  UNL1        0.0345
      7 C           0.9435    0.3497   21.3465 C.ar    1  UNL1        0.0030
      8 C           0.7934    0.4047   19.8550 C.ar    1  UNL1        0.0001
      9 C           1.8979    0.9674   19.0103 C.ar    1  UNL1        0.0000
     10 C           3.1525    1.4751   19.6570 C.ar    1  UNL1        0.0001
     11 C           3.3025    1.4201   21.1484 C.ar    1  UNL1        0.0030
     12 C           0.5740    2.6866   24.1531 C.ar    1  UNL1        0.0651
     13 C           0.9769    3.9364   23.4281 C.ar    1  UNL1        0.0176
     14 C          -0.0508    4.9798   23.1038 C.ar    1  UNL1        0.0015
     15 C          -1.4815    4.7733   23.5045 C.ar    1  UNL1        0.0001
     16 C          -1.8845    3.5236   24.2295 C.ar    1  UNL1        0.0015
     17 C          -0.8567    2.4802   24.5538 C.ar    1  UNL1        0.0176
     18 N           5.0361    0.1426   27.4347 N.am    1  UNL1       -0.2995
     19 C           3.8232   -0.5004   26.8301 C.2     1  UNL1        0.2648
     20 O           3.3382   -1.8220   27.3478 O.2     1  UNL1       -0.2684
     21 H           5.3544    1.0100   27.0949 H       1  UNL1        0.1498
     22 C           5.7641   -0.5362   28.5569 C.3     1  UNL1        0.0912
     23 C           6.7024   -1.6695   28.2652 C.3     1  UNL1        0.0386
     24 C           7.6162   -1.6001   27.0777 C.3     1  UNL1        0.0739
     25 N           5.9386   -1.9990   22.9212 N.pl3   1  UNL1       -0.3049
     26 C           6.6308   -0.7333   23.3324 C.3     1  UNL1        0.1081
     27 C           7.1900   -0.6004   24.7179 C.3     1  UNL1        0.0938
     28 N           7.0570   -1.7331   25.6923 N.3     1  UNL1       -0.2697
     29 C           6.3648   -2.9987   25.2811 C.3     1  UNL1        0.0938
     30 C           5.8056   -3.1316   23.8955 C.3     1  UNL1        0.1081
     31 C           7.7885   -2.1296   20.5631 C.3     1  UNL1        0.0332
     32 C           6.3043   -2.1972   20.3567 C.ar    1  UNL1        0.0020
     33 C           5.7451   -2.3301   18.9712 C.ar    1  UNL1        0.0549
     34 CL          6.6701   -2.3954   17.7921 Cl      1  UNL1       -0.0825
     35 C           4.2609   -2.3977   18.7647 C.ar    1  UNL1        0.0112
     36 C           3.3360   -2.3324   19.9438 C.ar    1  UNL1        0.0021
     37 C           3.8952   -2.1995   21.3292 C.ar    1  UNL1        0.0143
     38 C           5.3794   -2.1319   21.5357 C.ar    1  UNL1        0.0447
     39 C           1.5783    1.8475   27.1425 C.3     1  UNL1        0.1746
     40 N           0.5572    1.1176   27.9639 N.ar    1  UNL1       -0.2239
     41 C           0.8427    0.0652   28.9939 C.ar    1  UNL1        0.1976
     42 N          -0.4668   -0.3907   29.5660 N.ar    1  UNL1       -0.2007
     43 C          -1.5616    0.3799   28.8896 C.ar    1  UNL1        0.2210
     44 N          -0.9287    1.3122   27.8995 N.ar    1  UNL1       -0.1448
@<TRIPOS>BOND
     1    31    32    1
     2    32    33   ar
     3    33    34    1
     4    33    35   ar
     5    35    36   ar
     6    36    37   ar
     7    37    38   ar
     8    38    25    1
     9    25    26    1
    10    26    27    1
    11    27    28    1
    12    28    24    1
    13    24    23    1
    14    23    22    1
    15    22    18    1
    16    18    19   am
    17    19    20    2
    18    19     1    1
    19     1     2   ar
    20     2     3   ar
    21     3     6    1
    22     6     7   ar
    23     7     8   ar
    24     8     9   ar
    25     9    10   ar
    26    10    11   ar
    27     3     4   ar
    28     4    12    1
    29    12    13   ar
    30    13    14   ar
    31    14    15   ar
    32    15    16   ar
    33    16    17   ar
    34     4     5   ar
    35     5    39    1
    36    39    40    1
    37    40    41   ar
    38    41    42   ar
    39    42    43   ar
    40    43    44   ar
    41    28    29    1
    42    29    30    1
    43    38    32   ar
    44    30    25    1
    45     5     1   ar
    46    44    40   ar
    47    11     6   ar
    48    17    12   ar
    49    18    21    1
@<TRIPOS>MOLECULE
*****
 44 49 0 0 0
SMALL
GASTEIGER

@<TRIPOS>ATOM
      1 C           4.0007   -0.9366   24.4702 C.ar    1  UNL1        0.1499
      2 N           3.2004    0.0389   23.6591 N.ar    1  UNL1       -0.2222
      3 C           3.3050   -0.3613   22.2172 C.ar    1  UNL1        0.1476
      4 N           4.1700   -1.5842   22.1372 N.ar    1  UNL1       -0.2919
      5 C           4.6000   -1.9398   23.5296 C.ar    1  UNL1        0.0894
      6 C           2.6582    0.3384   21.0588 C.ar    1  UNL1        0.0345
      7 C           1.5284   -0.3179   20.3221 C.ar    1  UNL1        0.0030
      8 C           0.8817    0.3819   19.1636 C.ar    1  UNL1        0.0001
      9 C           1.3647    1.7380   18.7419 C.ar    1  UNL1        0.0000
     10 C           2.4945    2.3943   19.4787 C.ar    1  UNL1        0.0001
     11 C           3.1413    1.6945   20.6372 C.ar    1  UNL1        0.0030
     12 C           4.5401   -2.3219   20.8848 C.ar    1  UNL1        0.0651
     13 C           3.8117   -3.5791   20.5119 C.ar    1  UNL1        0.0176
     14 C           4.1818   -4.3168   19.2594 C.ar    1  UNL1        0.0015
     15 C           5.2803   -3.7975   18.3798 C.ar    1  UNL1        0.0001
     16 C           6.0087   -2.5404   18.7527 C.ar    1  UNL1        0.0015
     17 C           5.6386   -1.8026   20.0052 C.ar    1  UNL1        0.0176
     18 N           2.9681   -0.9622   26.8542 N.am    1  UNL1       -0.2995
     19 C           4.1717   -0.9131   25.9602 C.2     1  UNL1        0.2648
     20 O           5.5462   -0.8406   26.5563 O.2     1  UNL1       -0.2684
     21 H           2.0660   -1.0097   26.4629 H       1  UNL1        0.1498
     22 C           3.1392   -0.9387   28.3442 C.3     1  UNL1        0.0912
     23 C           2.4331    0.1004   29.1639 C.3     1  UNL1        0.0386
     24 C           2.3831    1.5227   28.6903 C.3     1  UNL1        0.0739
     25 N           0.0683    2.5783   24.9785 N.pl3   1  UNL1       -0.3049
     26 C           1.4154    3.1915   25.2220 C.3     1  UNL1        0.1081
     27 C           2.1870    2.8397   26.4593 C.3     1  UNL1        0.0938
     28 N           1.6115    1.8746   27.4530 N.3     1  UNL1       -0.2697
     29 C           0.2645    1.2613   27.2094 C.3     1  UNL1        0.0938
     30 C          -0.5071    1.6132   25.9721 C.3     1  UNL1        0.1081
     31 C          -2.4912    4.1279   25.1967 C.3     1  UNL1        0.0332
     32 C          -1.9830    3.7049   23.8503 C.ar    1  UNL1        0.0020
     33 C          -2.7545    4.0568   22.6130 C.ar    1  UNL1        0.0549
     34 CL         -4.0343    4.8316   22.7221 Cl      1  UNL1       -0.0825
     35 C          -2.2463    3.6338   21.2666 C.ar    1  UNL1        0.0112
     36 C          -0.9666    2.8590   21.1574 C.ar    1  UNL1        0.0021
     37 C          -0.1950    2.5072   22.3947 C.ar    1  UNL1        0.0143
     38 C          -0.7032    2.9302   23.7411 C.ar    1  UNL1        0.0447
     39 C           5.4755   -3.0954   23.9139 C.3     1  UNL1        0.1746
     40 N           6.6865   -3.4248   23.0923 N.ar    1  UNL1       -0.2239
     41 C           7.9219   -2.5836   22.9660 C.ar    1  UNL1        0.1976
     42 N           8.8735   -3.2923   22.0484 N.ar    1  UNL1       -0.2007
     43 C           8.2262   -4.5716   21.6074 C.ar    1  UNL1        0.2210
     44 N           6.8745   -4.6535   22.2526 N.ar    1  UNL1       -0.1448
@<TRIPOS>BOND
     1    31    32    1
     2    32    33   ar
     3    33    34    1
     4    33    35   ar
     5    35    36   ar
     6    36    37   ar
     7    37    38   ar
     8    38    25    1
     9    25    26    1
    10    26    27    1
    11    27    28    1
    12    28    24    1
    13    24    23    1
    14    23    22    1
    15    22    18    1
    16    18    19   am
    17    19    20    2
    18    19     1    1
    19     1     2   ar
    20     2     3   ar
    21     3     6    1
    22     6     7   ar
    23     7     8   ar
    24     8     9   ar
    25     9    10   ar
    26    10    11   ar
    27     3     4   ar
    28     4    12    1
    29    12    13   ar
    30    13    14   ar
    31    14    15   ar
    32    15    16   ar
    33    16    17   ar
    34     4     5   ar
    35     5    39    1
    36    39    40    1
    37    40    41   ar
    38    41    42   ar
    39    42    43   ar
    40    43    44   ar
    41    28    29    1
    42    29    30    1
    43    38    32   ar
    44    30    25    1
    45     5     1   ar
    46    44    40   ar
    47    11     6   ar
    48    17    12   ar
    49    18    21    1
@<TRIPOS>MOLECULE
*****
 44 49 0 0 0
SMALL
GASTEIGER

@<TRIPOS>ATOM
      1 C           4.9149   -1.7406   25.4788 C.ar    1  UNL1        0.1499
      2 N           4.1310   -1.8035   24.2015 N.ar    1  UNL1       -0.2222
      3 C           4.9390   -2.5732   23.1991 C.ar    1  UNL1        0.1476
      4 N           6.2223   -2.9860   23.8569 N.ar    1  UNL1       -0.2919
      5 C           6.2075   -2.4715   25.2659 C.ar    1  UNL1        0.0894
      6 C           4.5348   -2.8767   21.7869 C.ar    1  UNL1        0.0345
      7 C           4.3849   -1.7627   20.7937 C.ar    1  UNL1        0.0030
      8 C           3.9807   -2.0664   19.3815 C.ar    1  UNL1        0.0001
      9 C           3.7263   -3.4840   18.9625 C.ar    1  UNL1        0.0000
     10 C           3.8762   -4.5981   19.9557 C.ar    1  UNL1        0.0001
     11 C           4.2804   -4.2944   21.3679 C.ar    1  UNL1        0.0030
     12 C           7.3267   -3.7748   23.2180 C.ar    1  UNL1        0.0651
     13 C           7.5902   -5.1855   23.6545 C.ar    1  UNL1        0.0176
     14 C           8.6945   -5.9743   23.0157 C.ar    1  UNL1        0.0015
     15 C           9.5353   -5.3525   21.9403 C.ar    1  UNL1        0.0001
     16 C           9.2718   -3.9418   21.5038 C.ar    1  UNL1        0.0015
     17 C           8.1675   -3.1530   22.1427 C.ar    1  UNL1        0.0176
     18 N           3.1145   -1.3247   27.3052 N.am    1  UNL1       -0.2995
     19 C           4.4822   -1.0655   26.7465 C.2     1  UNL1        0.2648
     20 O           5.4173   -0.1312   27.4554 O.2     1  UNL1       -0.2684
     21 H           2.5008   -1.9380   26.8399 H       1  UNL1        0.1498
     22 C           2.6818   -0.6496   28.5729 C.3     1  UNL1        0.0912
     23 C           1.6287    0.4177   28.5325 C.3     1  UNL1        0.0386
     24 C           1.8399    1.6487   27.7018 C.3     1  UNL1        0.0739
     25 N           1.3832    1.4510   23.2295 N.pl3   1  UNL1       -0.3049
     26 C           0.1779    1.3214   24.1129 C.3     1  UNL1        0.1081
     27 C           0.3301    1.3873   25.6037 C.3     1  UNL1        0.0938
     28 N           1.6877    1.5828   26.2111 N.3     1  UNL1       -0.2697
     29 C           2.8930    1.7125   25.3277 C.3     1  UNL1        0.0938
     30 C           2.7407    1.6466   23.8368 C.3     1  UNL1        0.1081
     31 C           1.1738    3.9803   21.6297 C.3     1  UNL1        0.0332
     32 C           1.1263    2.6497   20.9388 C.ar    1  UNL1        0.0020
     33 C           0.9740    2.5838   19.4480 C.ar    1  UNL1        0.0549
     34 CL          0.8693    3.8484   18.6481 Cl      1  UNL1       -0.0825
     35 C           0.9265    1.2532   18.7571 C.ar    1  UNL1        0.0112
     36 C           1.0312   -0.0114   19.5569 C.ar    1  UNL1        0.0021
     37 C           1.1834    0.0546   21.0477 C.ar    1  UNL1        0.0143
     38 C           1.2310    1.3851   21.7386 C.ar    1  UNL1        0.0447
     39 C           7.2942   -2.6554   26.2832 C.3     1  UNL1        0.1746
     40 N           7.2414   -3.8125   27.2363 N.ar    1  UNL1       -0.2239
     41 C           6.1380   -4.1034   28.2098 C.ar    1  UNL1        0.1976
     42 N           6.4975   -5.3525   28.9584 N.ar    1  UNL1       -0.2007
     43 C           7.8232   -5.8337   28.4474 C.ar    1  UNL1        0.2210
     44 N           8.2829   -4.8819   27.3831 N.ar    1  UNL1       -0.1448
@<TRIPOS>BOND
     1    31    32    1
     2    32    33   ar
     3    33    34    1
     4    33    35   ar
     5    35    36   ar
     6    36    37   ar
     7    37    38   ar
     8    38    25    1
     9    25    26    1
    10    26    27    1
    11    27    28    1
    12    28    24    1
    13    24    23    1
    14    23    22    1
    15    22    18    1
    16    18    19   am
    17    19    20    2
    18    19     1    1
    19     1     2   ar
    20     2     3   ar
    21     3     6    1
    22     6     7   ar
    23     7     8   ar
    24     8     9   ar
    25     9    10   ar
    26    10    11   ar
    27     3     4   ar
    28     4    12    1
    29    12    13   ar
    30    13    14   ar
    31    14    15   ar
    32    15    16   ar
    33    16    17   ar
    34     4     5   ar
    35     5    39    1
    36    39    40    1
    37    40    41   ar
    38    41    42   ar
    39    42    43   ar
    40    43    44   ar
    41    28    29    1
    42    29    30    1
    43    38    32   ar
    44    30    25    1
    45     5     1   ar
    46    44    40   ar
    47    11     6   ar
    48    17    12   ar
    49    18    21    1
@<TRIPOS>MOLECULE
*****
 44 49 0 0 0
SMALL
GASTEIGER

@<TRIPOS>ATOM
      1 C           0.8504    3.8827   22.5674 C.ar    1  UNL1        0.1499
      2 N           2.0163    2.9414   22.5008 N.ar    1  UNL1       -0.2222
      3 C           2.1138    2.2301   23.8178 C.ar    1  UNL1        0.1476
      4 N           1.0081    2.7319   24.6985 N.ar    1  UNL1       -0.2919
      5 C           0.2272    3.7533   23.9258 C.ar    1  UNL1        0.0894
      6 C           3.1372    1.1983   24.1890 C.ar    1  UNL1        0.0345
      7 C           2.6993   -0.1509   24.6767 C.ar    1  UNL1        0.0030
      8 C           3.7228   -1.1827   25.0479 C.ar    1  UNL1        0.0001
      9 C           5.1842   -0.8653   24.9315 C.ar    1  UNL1        0.0000
     10 C           5.6221    0.4839   24.4438 C.ar    1  UNL1        0.0001
     11 C           4.5986    1.5157   24.0726 C.ar    1  UNL1        0.0030
     12 C           0.7317    2.2900   26.1050 C.ar    1  UNL1        0.0651
     13 C           1.5631    2.8210   27.2350 C.ar    1  UNL1        0.0176
     14 C           1.2867    2.3791   28.6416 C.ar    1  UNL1        0.0015
     15 C           0.1790    1.4061   28.9181 C.ar    1  UNL1        0.0001
     16 C          -0.6523    0.8751   27.7881 C.ar    1  UNL1        0.0015
     17 C          -0.3759    1.3170   26.3816 C.ar    1  UNL1        0.0176
     18 N          -0.8111    4.4279   20.6458 N.am    1  UNL1       -0.2995
     19 C           0.3886    4.7936   21.4687 C.2     1  UNL1        0.2648
     20 O           1.1265    6.0701   21.1929 O.2     1  UNL1       -0.2684
     21 H          -1.2954    3.5901   20.8269 H       1  UNL1        0.1498
     22 C          -1.2728    5.3388   19.5472 C.3     1  UNL1        0.0912
     23 C          -0.9113    5.0389   18.1226 C.3     1  UNL1        0.0386
     24 C           0.5160    4.7624   17.7533 C.3     1  UNL1        0.0739
     25 N           2.5066    0.9739   19.1443 N.pl3   1  UNL1       -0.3049
     26 C           1.0825    0.9438   18.6741 C.3     1  UNL1        0.1081
     27 C           0.4190    2.2066   18.2105 C.3     1  UNL1        0.0938
     28 N           1.1795    3.4996   18.2170 N.3     1  UNL1       -0.2697
     29 C           2.6036    3.5296   18.6872 C.3     1  UNL1        0.0938
     30 C           3.2671    2.2668   19.1509 C.3     1  UNL1        0.1081
     31 C           3.9180   -0.7908   17.1711 C.3     1  UNL1        0.0332
     32 C           3.8759   -1.1713   18.6214 C.ar    1  UNL1        0.0020
     33 C           4.5393   -2.4341   19.0851 C.ar    1  UNL1        0.0549
     34 CL          5.2451   -3.3165   18.0985 Cl      1  UNL1       -0.0825
     35 C           4.4972   -2.8146   20.5354 C.ar    1  UNL1        0.0112
     36 C           3.7915   -1.9322   21.5221 C.ar    1  UNL1        0.0021
     37 C           3.1280   -0.6694   21.0584 C.ar    1  UNL1        0.0143
     38 C           3.1702   -0.2890   19.6080 C.ar    1  UNL1        0.0447
     39 C          -0.9670    4.5120   24.4239 C.3     1  UNL1        0.1746
     40 N          -2.3498    4.0495   24.0717 N.ar    1  UNL1       -0.2239
     41 C          -3.4200    3.6496   25.0436 C.ar    1  UNL1        0.1976
     42 N          -4.6368    3.2587   24.2583 N.ar    1  UNL1       -0.2007
     43 C          -4.3185    3.4171   22.8010 C.ar    1  UNL1        0.2210
     44 N          -2.9051    3.9058   22.6857 N.ar    1  UNL1       -0.1448
@<TRIPOS>BOND
     1    31    32    1
     2    32    33   ar
     3    33    34    1
     4    33    35   ar
     5    35    36   ar
     6    36    37   ar
     7    37    38   ar
     8    38    25    1
     9    25    26    1
    10    26    27    1
    11    27    28    1
    12    28    24    1
    13    24    23    1
    14    23    22    1
    15    22    18    1
    16    18    19   am
    17    19    20    2
    18    19     1    1
    19     1     2   ar
    20     2     3   ar
    21     3     6    1
    22     6     7   ar
    23     7     8   ar
    24     8     9   ar
    25     9    10   ar
    26    10    11   ar
    27     3     4   ar
    28     4    12    1
    29    12    13   ar
    30    13    14   ar
    31    14    15   ar
    32    15    16   ar
    33    16    17   ar
    34     4     5   ar
    35     5    39    1
    36    39    40    1
    37    40    41   ar
    38    41    42   ar
    39    42    43   ar
    40    43    44   ar
    41    28    29    1
    42    29    30    1
    43    38    32   ar
    44    30    25    1
    45     5     1   ar
    46    44    40   ar
    47    11     6   ar
    48    17    12   ar
    49    18    21    1
@<TRIPOS>MOLECULE
*****
 44 49 0 0 0
SMALL
GASTEIGER

@<TRIPOS>ATOM
      1 C           5.2330   -3.0276   23.5079 C.ar    1  UNL1        0.1499
      2 N           4.2859   -2.0304   24.1066 N.ar    1  UNL1       -0.2222
      3 C           4.7945   -1.6692   25.4708 C.ar    1  UNL1        0.1476
      4 N           6.0559   -2.4432   25.7151 N.ar    1  UNL1       -0.2919
      5 C           6.3270   -3.2828   24.5020 C.ar    1  UNL1        0.0894
      6 C           4.1542   -0.7036   26.4234 C.ar    1  UNL1        0.0345
      7 C           3.1622   -1.1949   27.4356 C.ar    1  UNL1        0.0030
      8 C           2.5219   -0.2291   28.3882 C.ar    1  UNL1        0.0001
      9 C           2.8736    1.2279   28.3285 C.ar    1  UNL1        0.0000
     10 C           3.8655    1.7191   27.3163 C.ar    1  UNL1        0.0001
     11 C           4.5058    0.7534   26.3637 C.ar    1  UNL1        0.0030
     12 C           6.8984   -2.3875   26.9549 C.ar    1  UNL1        0.0651
     13 C           6.3993   -3.0018   28.2290 C.ar    1  UNL1        0.0176
     14 C           7.2418   -2.9461   29.4688 C.ar    1  UNL1        0.0015
     15 C           8.5835   -2.2761   29.4344 C.ar    1  UNL1        0.0001
     16 C           9.0826   -1.6618   28.1603 C.ar    1  UNL1        0.0015
     17 C           8.2401   -1.7175   26.9205 C.ar    1  UNL1        0.0176
     18 N           6.0644   -3.2839   21.0597 N.am    1  UNL1       -0.2995
     19 C           5.1081   -3.6589   22.1529 C.2     1  UNL1        0.2648
     20 O           4.0269   -4.6651   21.8911 O.2     1  UNL1       -0.2684
     21 H           6.7740   -2.6234   21.2316 H       1  UNL1        0.1498
     22 C           5.9395   -3.9151   19.7048 C.3     1  UNL1        0.0912
     23 C           5.3156   -3.1499   18.5755 C.3     1  UNL1        0.0386
     24 C           5.2271   -1.6540   18.6418 C.3     1  UNL1        0.0739
     25 N           2.5066    0.3083   21.6415 N.pl3   1  UNL1       -0.3049
     26 C           3.8911    0.8425   21.4225 C.3     1  UNL1        0.1081
     27 C           4.7979    0.1884   20.4226 C.3     1  UNL1        0.0938
     28 N           4.3203   -0.9999   19.6417 N.3     1  UNL1       -0.2697
     29 C           2.9359   -1.5341   19.8607 C.3     1  UNL1        0.0938
     30 C           2.0290   -0.8799   20.8606 C.3     1  UNL1        0.1081
     31 C           0.5164    2.3648   20.7415 C.3     1  UNL1        0.0332
     32 C           0.6047    1.9907   22.1914 C.ar    1  UNL1        0.0020
     33 C          -0.3021    2.6448   23.1913 C.ar    1  UNL1        0.0549
     34 CL         -1.2972    3.6731   22.7413 Cl      1  UNL1       -0.0825
     35 C          -0.2138    2.2707   24.6412 C.ar    1  UNL1        0.0112
     36 C           0.7813    1.2425   25.0912 C.ar    1  UNL1        0.0021
     37 C           1.6881    0.5884   24.0913 C.ar    1  UNL1        0.0143
     38 C           1.5998    0.9625   22.6414 C.ar    1  UNL1        0.0447
     39 C           7.4880   -4.2140   24.3156 C.3     1  UNL1        0.1746
     40 N           7.4623   -5.5787   24.9376 N.ar    1  UNL1       -0.2239
     41 C           8.0396   -6.8294   24.3439 C.ar    1  UNL1        0.1976
     42 N           7.7889   -7.9559   25.3020 N.ar    1  UNL1       -0.2007
     43 C           7.0566   -7.4015   26.4880 C.ar    1  UNL1        0.2210
     44 N           6.8548   -5.9323   26.2628 N.ar    1  UNL1       -0.1448
@<TRIPOS>BOND
     1    31    32    1
     2    32    33   ar
     3    33    34    1
     4    33    35   ar
     5    35    36   ar
     6    36    37   ar
     7    37    38   ar
     8    38    25    1
     9    25    26    1
    10    26    27    1
    11    27    28    1
    12    28    24    1
    13    24    23    1
    14    23    22    1
    15    22    18    1
    16    18    19   am
    17    19    20    2
    18    19     1    1
    19     1     2   ar
    20     2     3   ar
    21     3     6    1
    22     6     7   ar
    23     7     8   ar
    24     8     9   ar
    25     9    10   ar
    26    10    11   ar
    27     3     4   ar
    28     4    12    1
    29    12    13   ar
    30    13    14   ar
    31    14    15   ar
    32    15    16   ar
    33    16    17   ar
    34     4     5   ar
    35     5    39    1
    36    39    40    1
    37    40    41   ar
    38    41    42   ar
    39    42    43   ar
    40    43    44   ar
    41    28    29    1
    42    29    30    1
    43    38    32   ar
    44    30    25    1
    45     5     1   ar
    46    44    40   ar
    47    11     6   ar
    48    17    12   ar
    49    18    21    1
@<TRIPOS>MOLECULE
*****
 44 49 0 0 0
SMALL
GASTEIGER

@<TRIPOS>ATOM
      1 C           4.8782   -1.3750   25.9820 C.ar    1  UNL1        0.1499
      2 N           4.0577   -1.4189   24.7271 N.ar    1  UNL1       -0.2222
      3 C           4.7900   -2.2597   23.7237 C.ar    1  UNL1        0.1476
      4 N           6.0631   -2.7355   24.3585 N.ar    1  UNL1       -0.2919
      5 C           6.1176   -2.1887   25.7543 C.ar    1  UNL1        0.0894
      6 C           4.3301   -2.5702   22.3302 C.ar    1  UNL1        0.0345
      7 C           3.6473   -1.5140   21.5128 C.ar    1  UNL1        0.0030
      8 C           3.1874   -1.8246   20.1193 C.ar    1  UNL1        0.0001
      9 C           3.4103   -3.1915   19.5431 C.ar    1  UNL1        0.0000
     10 C           4.0931   -4.2477   20.3604 C.ar    1  UNL1        0.0001
     11 C           4.5530   -3.9371   21.7539 C.ar    1  UNL1        0.0030
     12 C           7.0996   -3.6053   23.7113 C.ar    1  UNL1        0.0651
     13 C           8.0018   -3.0380   22.6557 C.ar    1  UNL1        0.0176
     14 C           9.0384   -3.9078   22.0085 C.ar    1  UNL1        0.0015
     15 C           9.1728   -5.3449   22.4168 C.ar    1  UNL1        0.0001
     16 C           8.2706   -5.9122   23.4724 C.ar    1  UNL1        0.0015
     17 C           7.2340   -5.0424   24.1196 C.ar    1  UNL1        0.0176
     18 N           4.4050   -1.3964   28.5366 N.am    1  UNL1       -0.2995
     19 C           4.5218   -0.6455   27.2433 C.2     1  UNL1        0.2648
     20 O           4.2823    0.8349   27.2114 O.2     1  UNL1       -0.2684
     21 H           4.5622   -2.3681   28.5576 H       1  UNL1        0.1498
     22 C           4.0486   -0.6669   29.7979 C.3     1  UNL1        0.0912
     23 C           2.6140   -0.5594   30.2223 C.3     1  UNL1        0.0386
     24 C           1.9947    0.7896   30.4380 C.3     1  UNL1        0.0739
     25 N          -0.8601    2.4680   27.3912 N.pl3   1  UNL1       -0.3049
     26 C           0.1647    3.3584   28.0291 C.3     1  UNL1        0.1081
     27 C           1.1163    2.7989   29.0447 C.3     1  UNL1        0.0938
     28 N           1.0431    1.3490   29.4224 N.3     1  UNL1       -0.2697
     29 C           0.0183    0.4586   28.7844 C.3     1  UNL1        0.0938
     30 C          -0.9333    1.0182   27.7688 C.3     1  UNL1        0.1081
     31 C          -0.1154    2.4810   24.4851 C.3     1  UNL1        0.0332
     32 C          -1.4394    3.0340   24.9225 C.ar    1  UNL1        0.0020
     33 C          -2.3910    3.5935   23.9070 C.ar    1  UNL1        0.0549
     34 CL         -2.0186    3.6000   22.4539 Cl      1  UNL1       -0.0825
     35 C          -3.7149    4.1464   24.3444 C.ar    1  UNL1        0.0112
     36 C          -4.0873    4.1399   25.7974 C.ar    1  UNL1        0.0021
     37 C          -3.1357    3.5804   26.8130 C.ar    1  UNL1        0.0143
     38 C          -1.8117    3.0275   26.3755 C.ar    1  UNL1        0.0447
     39 C           7.2181   -2.4157   26.7477 C.3     1  UNL1        0.1746
     40 N           7.0071   -3.3527   27.9000 N.ar    1  UNL1       -0.2239
     41 C           6.6458   -4.8051   27.8007 C.ar    1  UNL1        0.1976
     42 N           6.5357   -5.3516   29.1932 N.ar    1  UNL1       -0.2007
     43 C           6.8288   -4.2369   30.1531 C.ar    1  UNL1        0.2210
     44 N           7.1202   -3.0015   29.3539 N.ar    1  UNL1       -0.1448
@<TRIPOS>BOND
     1    31    32    1
     2    32    33   ar
     3    33    34    1
     4    33    35   ar
     5    35    36   ar
     6    36    37   ar
     7    37    38   ar
     8    38    25    1
     9    25    26    1
    10    26    27    1
    11    27    28    1
    12    28    24    1
    13    24    23    1
    14    23    22    1
    15    22    18    1
    16    18    19   am
    17    19    20    2
    18    19     1    1
    19     1     2   ar
    20     2     3   ar
    21     3     6    1
    22     6     7   ar
    23     7     8   ar
    24     8     9   ar
    25     9    10   ar
    26    10    11   ar
    27     3     4   ar
    28     4    12    1
    29    12    13   ar
    30    13    14   ar
    31    14    15   ar
    32    15    16   ar
    33    16    17   ar
    34     4     5   ar
    35     5    39    1
    36    39    40    1
    37    40    41   ar
    38    41    42   ar
    39    42    43   ar
    40    43    44   ar
    41    28    29    1
    42    29    30    1
    43    38    32   ar
    44    30    25    1
    45     5     1   ar
    46    44    40   ar
    47    11     6   ar
    48    17    12   ar
    49    18    21    1
