@<TRIPOS>MOLECULE
*****
 26 29 0 0 0
SMALL
GASTEIGER

@<TRIPOS>ATOM
      1 C         -12.2807  -18.3176   22.7491 C.2     1  UNL1        0.0919
      2 C         -12.4184  -17.6928   21.3924 C.2     1  UNL1        0.0183
      3 C         -11.2784  -17.7537   20.4194 C.2     1  UNL1        0.0511
      4 C         -10.0007  -18.4395   20.8031 C.2     1  UNL1        0.2322
      5 N          -8.7158  -18.6565   20.0603 N.2     1  UNL1       -0.0295
      6 C          -7.7839  -19.4154   20.9579 C.2     1  UNL1        0.3932
      7 N          -8.4929  -19.6675   22.2554 N.2     1  UNL1       -0.0333
      8 C          -9.8630  -19.0643   22.1597 C.2     1  UNL1        0.2192
      9 C         -11.0030  -19.0034   23.1327 C.3     1  UNL1        0.1226
     10 C          -6.3880  -19.8466   20.6176 C.ar    1  UNL1        0.1694
     11 C          -5.2567  -18.8659   20.7096 C.ar    1  UNL1        0.0270
     12 C          -3.8609  -19.2970   20.3693 C.ar    1  UNL1        0.0033
     13 C          -3.5964  -20.7087   19.9371 C.ar    1  UNL1        0.0207
     14 C          -4.7277  -21.6894   19.8451 C.ar    1  UNL1        0.0991
     15 N          -6.1235  -21.2583   20.1853 N.ar    1  UNL1       -0.2361
     16 C          -2.7296  -18.3163   20.4613 C.ar    1  UNL1        0.0001
     17 C          -1.5274  -18.4732   19.5783 C.ar    1  UNL1        0.0000
     18 C          -0.3961  -17.4925   19.6703 C.ar    1  UNL1        0.0000
     19 C          -0.4671  -16.3549   20.6453 C.ar    1  UNL1        0.0000
     20 C          -1.6694  -16.1980   21.5283 C.ar    1  UNL1        0.0000
     21 C          -2.8007  -17.1787   21.4364 C.ar    1  UNL1        0.0000
     22 S         -13.4206  -18.2566   23.7221 S.O2    1  UNL1        0.0054
     23 O         -14.3693  -17.9810   22.5934 O.2     1  UNL1       -0.1689
     24 O         -12.4720  -18.5322   24.8508 O.2     1  UNL1       -0.1689
     25 C         -14.3332  -18.5328   26.1389 C.3     1  UNL1        0.0276
     26 C         -14.5606  -18.1956   24.6951 C.3     1  UNL1        0.1556
@<TRIPOS>BOND
     1    25    26    1
     2    26    22    1
     3    22    23    2
     4    22    24    2
     5    22     1    1
     6     1     2    2
     7     2     3    1
     8     3     4    2
     9     4     5    1
    10     5     6    2
    11     6    10    1
    12    10    11   ar
    13    11    12   ar
    14    12    16    1
    15    16    17   ar
    16    17    18   ar
    17    18    19   ar
    18    19    20   ar
    19    20    21   ar
    20    12    13   ar
    21    13    14   ar
    22    14    15   ar
    23     6     7    1
    24     7     8    2
    25     8     9    1
    26     9     1    1
    27     8     4    1
    28    15    10   ar
    29    21    16   ar
@<TRIPOS>MOLECULE
*****
 26 29 0 0 0
SMALL
GASTEIGER

@<TRIPOS>ATOM
      1 C           7.3814   -5.6285   27.1732 C.2     1  UNL1        0.0919
      2 C           8.1269   -6.6952   26.4274 C.2     1  UNL1        0.0183
      3 C           8.2534   -6.6179   24.9347 C.2     1  UNL1        0.0511
      4 C           7.6342   -5.4739   24.1879 C.2     1  UNL1        0.2322
      5 N           7.5941   -5.1328   22.7277 N.2     1  UNL1       -0.0295
      6 C           6.8237   -3.8553   22.5711 C.2     1  UNL1        0.3932
      7 N           6.3877   -3.4068   23.9344 N.2     1  UNL1       -0.0333
      8 C           6.8887   -4.4072   24.9337 C.2     1  UNL1        0.2192
      9 C           6.7623   -4.4845   26.4263 C.3     1  UNL1        0.1226
     10 C           6.5392   -3.1502   21.2780 C.ar    1  UNL1        0.1694
     11 C           5.2271   -2.4515   21.0777 C.ar    1  UNL1        0.0270
     12 C           4.9426   -1.7463   19.7847 C.ar    1  UNL1        0.0033
     13 C           5.9702   -1.7399   18.6921 C.ar    1  UNL1        0.0207
     14 C           7.2824   -2.4386   18.8924 C.ar    1  UNL1        0.0991
     15 N           7.5668   -3.1437   20.1854 N.ar    1  UNL1       -0.2361
     16 C           3.6305   -1.0476   19.5844 C.ar    1  UNL1        0.0001
     17 C           2.5131   -1.2551   20.5634 C.ar    1  UNL1        0.0000
     18 C           1.2010   -0.5564   20.3630 C.ar    1  UNL1        0.0000
     19 C           1.0062    0.3497   19.1837 C.ar    1  UNL1        0.0000
     20 C           2.1235    0.5572   18.2047 C.ar    1  UNL1        0.0000
     21 C           3.4356   -0.1415   18.4050 C.ar    1  UNL1        0.0000
     22 S           7.2549   -5.7058   28.6658 S.O2    1  UNL1        0.0054
     23 O           8.1487   -6.9104   28.6791 O.2     1  UNL1       -0.1689
     24 O           6.3612   -4.5012   28.6525 O.2     1  UNL1       -0.1689
     25 C           7.0122   -4.5254   30.9675 C.3     1  UNL1        0.0276
     26 C           7.1285   -5.7831   30.1585 C.3     1  UNL1        0.1556
@<TRIPOS>BOND
     1    25    26    1
     2    26    22    1
     3    22    23    2
     4    22    24    2
     5    22     1    1
     6     1     2    2
     7     2     3    1
     8     3     4    2
     9     4     5    1
    10     5     6    2
    11     6    10    1
    12    10    11   ar
    13    11    12   ar
    14    12    16    1
    15    16    17   ar
    16    17    18   ar
    17    18    19   ar
    18    19    20   ar
    19    20    21   ar
    20    12    13   ar
    21    13    14   ar
    22    14    15   ar
    23     6     7    1
    24     7     8    2
    25     8     9    1
    26     9     1    1
    27     8     4    1
    28    15    10   ar
    29    21    16   ar
@<TRIPOS>MOLECULE
*****
 26 29 0 0 0
SMALL
GASTEIGER

@<TRIPOS>ATOM
      1 C           3.1687   -0.8083   19.0740 C.2     1  UNL1        0.0919
      2 C           3.6628    0.3962   18.3291 C.2     1  UNL1        0.0183
      3 C           2.8686    1.6685   18.3493 C.2     1  UNL1        0.0511
      4 C           1.5802    1.7363   19.1144 C.2     1  UNL1        0.2322
      5 N           0.5893    2.8443   19.3154 N.2     1  UNL1       -0.0295
      6 C          -0.5173    2.3245   20.1845 C.2     1  UNL1        0.3932
      7 N          -0.2103    0.8953   20.5207 N.2     1  UNL1       -0.0333
      8 C           1.0860    0.5317   19.8592 C.2     1  UNL1        0.2192
      9 C           1.8803   -0.7406   19.8390 C.3     1  UNL1        0.1226
     10 C          -1.7198    3.0983   20.6379 C.ar    1  UNL1        0.1694
     11 C          -2.0538    3.1776   22.0981 C.ar    1  UNL1        0.0270
     12 C          -3.2562    3.9513   22.5515 C.ar    1  UNL1        0.0033
     13 C          -4.1245    4.6457   21.5447 C.ar    1  UNL1        0.0207
     14 C          -3.7905    4.5664   20.0845 C.ar    1  UNL1        0.0991
     15 N          -2.5881    3.7927   19.6311 N.ar    1  UNL1       -0.2361
     16 C          -3.5902    4.0305   24.0117 C.ar    1  UNL1        0.0001
     17 C          -2.5985    3.5610   25.0345 C.ar    1  UNL1        0.0000
     18 C          -2.9325    3.6403   26.4947 C.ar    1  UNL1        0.0000
     19 C          -4.2582    4.1891   26.9321 C.ar    1  UNL1        0.0000
     20 C          -5.2498    4.6586   25.9093 C.ar    1  UNL1        0.0000
     21 C          -4.9158    4.5793   24.4491 C.ar    1  UNL1        0.0000
     22 S           3.9629   -2.0807   19.0538 S.O2    1  UNL1        0.0054
     23 O           3.5371   -2.3689   20.4629 O.2     1  UNL1       -0.1689
     24 O           4.3888   -1.7924   17.6447 O.2     1  UNL1       -0.1689
     25 C           4.0532   -4.6755   18.9604 C.3     1  UNL1        0.0276
     26 C           4.7572   -3.3530   19.0336 C.3     1  UNL1        0.1556
@<TRIPOS>BOND
     1    25    26    1
     2    26    22    1
     3    22    23    2
     4    22    24    2
     5    22     1    1
     6     1     2    2
     7     2     3    1
     8     3     4    2
     9     4     5    1
    10     5     6    2
    11     6    10    1
    12    10    11   ar
    13    11    12   ar
    14    12    16    1
    15    16    17   ar
    16    17    18   ar
    17    18    19   ar
    18    19    20   ar
    19    20    21   ar
    20    12    13   ar
    21    13    14   ar
    22    14    15   ar
    23     6     7    1
    24     7     8    2
    25     8     9    1
    26     9     1    1
    27     8     4    1
    28    15    10   ar
    29    21    16   ar
@<TRIPOS>MOLECULE
*****
 26 29 0 0 0
SMALL
GASTEIGER

@<TRIPOS>ATOM
      1 C           3.1613   -0.8570   18.9772 C.2     1  UNL1        0.0919
      2 C           3.4684    0.3455   18.1348 C.2     1  UNL1        0.0183
      3 C           2.6488    1.5932   18.2815 C.2     1  UNL1        0.0511
      4 C           1.5220    1.6384   19.2706 C.2     1  UNL1        0.2322
      5 N           0.5482    2.7198   19.6339 N.2     1  UNL1       -0.0295
      6 C          -0.3609    2.1857   20.7009 C.2     1  UNL1        0.3932
      7 N           0.0512    0.7742   20.9970 N.2     1  UNL1       -0.0333
      8 C           1.2149    0.4359   20.1130 C.2     1  UNL1        0.2192
      9 C           2.0345   -0.8118   19.9663 C.3     1  UNL1        0.1226
     10 C          -1.4846    2.9322   21.3567 C.ar    1  UNL1        0.1694
     11 C          -2.7304    3.2447   20.5817 C.ar    1  UNL1        0.0270
     12 C          -3.8541    3.9911   21.2374 C.ar    1  UNL1        0.0033
     13 C          -3.7322    4.4251   22.6680 C.ar    1  UNL1        0.0207
     14 C          -2.4864    4.1126   23.4430 C.ar    1  UNL1        0.0991
     15 N          -1.3627    3.3661   22.7873 N.ar    1  UNL1       -0.2361
     16 C          -5.0998    4.3037   20.4624 C.ar    1  UNL1        0.0001
     17 C          -5.8049    5.6110   20.6713 C.ar    1  UNL1        0.0000
     18 C          -7.0506    5.9235   19.8963 C.ar    1  UNL1        0.0000
     19 C          -7.5912    4.9287   18.9125 C.ar    1  UNL1        0.0000
     20 C          -6.8862    3.6213   18.7037 C.ar    1  UNL1        0.0000
     21 C          -5.6405    3.3088   19.4787 C.ar    1  UNL1        0.0000
     22 S           3.9809   -2.1046   18.8305 S.O2    1  UNL1        0.0054
     23 O           4.3766   -1.6821   17.4468 O.2     1  UNL1       -0.1689
     24 O           3.5853   -2.5272   20.2143 O.2     1  UNL1       -0.1689
     25 C           4.1653   -4.6955   18.8895 C.3     1  UNL1        0.0276
     26 C           4.8006   -3.3523   18.6839 C.3     1  UNL1        0.1556
@<TRIPOS>BOND
     1    25    26    1
     2    26    22    1
     3    22    23    2
     4    22    24    2
     5    22     1    1
     6     1     2    2
     7     2     3    1
     8     3     4    2
     9     4     5    1
    10     5     6    2
    11     6    10    1
    12    10    11   ar
    13    11    12   ar
    14    12    16    1
    15    16    17   ar
    16    17    18   ar
    17    18    19   ar
    18    19    20   ar
    19    20    21   ar
    20    12    13   ar
    21    13    14   ar
    22    14    15   ar
    23     6     7    1
    24     7     8    2
    25     8     9    1
    26     9     1    1
    27     8     4    1
    28    15    10   ar
    29    21    16   ar
@<TRIPOS>MOLECULE
*****
 26 29 0 0 0
SMALL
GASTEIGER

@<TRIPOS>ATOM
      1 C           1.4201    1.0922   28.9231 C.2     1  UNL1        0.0919
      2 C          -0.0008    1.5728   28.9342 C.2     1  UNL1        0.0183
      3 C          -0.7246    1.8036   27.6409 C.2     1  UNL1        0.0511
      4 C          -0.0277    1.5537   26.3364 C.2     1  UNL1        0.2322
      5 N          -0.4815    1.6918   24.9134 N.2     1  UNL1       -0.0295
      6 C           0.6589    1.2965   24.0227 C.2     1  UNL1        0.3932
      7 N           1.8175    0.9141   24.8953 N.2     1  UNL1       -0.0333
      8 C           1.3932    1.0731   26.3252 C.2     1  UNL1        0.2192
      9 C           2.1170    0.8423   27.6186 C.3     1  UNL1        0.1226
     10 C           0.6434    1.2855   22.5228 C.ar    1  UNL1        0.1694
     11 C           1.6214    0.4340   21.7689 C.ar    1  UNL1        0.0270
     12 C           1.6059    0.4229   20.2690 C.ar    1  UNL1        0.0033
     13 C           0.6123    1.2634   19.5231 C.ar    1  UNL1        0.0207
     14 C          -0.3657    2.1149   20.2770 C.ar    1  UNL1        0.0991
     15 N          -0.3502    2.1259   21.7769 N.ar    1  UNL1       -0.2361
     16 C           2.5839   -0.4286   19.5151 C.ar    1  UNL1        0.0001
     17 C           3.0713    0.0057   18.1646 C.ar    1  UNL1        0.0000
     18 C           4.0493   -0.8458   17.4107 C.ar    1  UNL1        0.0000
     19 C           4.5399   -2.1316   18.0072 C.ar    1  UNL1        0.0000
     20 C           4.0526   -2.5659   19.3577 C.ar    1  UNL1        0.0000
     21 C           3.0745   -1.7144   20.1116 C.ar    1  UNL1        0.0000
     22 S           2.1439    0.8614   30.2164 S.O2    1  UNL1        0.0054
     23 O           1.6228   -0.5446   30.2572 O.2     1  UNL1       -0.1689
     24 O           2.6651    2.2674   30.1757 O.2     1  UNL1       -0.1689
     25 C           3.5269   -0.6905   31.7750 C.3     1  UNL1        0.0276
     26 C           2.8678    0.6306   31.5098 C.3     1  UNL1        0.1556
@<TRIPOS>BOND
     1    25    26    1
     2    26    22    1
     3    22    23    2
     4    22    24    2
     5    22     1    1
     6     1     2    2
     7     2     3    1
     8     3     4    2
     9     4     5    1
    10     5     6    2
    11     6    10    1
    12    10    11   ar
    13    11    12   ar
    14    12    16    1
    15    16    17   ar
    16    17    18   ar
    17    18    19   ar
    18    19    20   ar
    19    20    21   ar
    20    12    13   ar
    21    13    14   ar
    22    14    15   ar
    23     6     7    1
    24     7     8    2
    25     8     9    1
    26     9     1    1
    27     8     4    1
    28    15    10   ar
    29    21    16   ar
@<TRIPOS>MOLECULE
*****
 26 29 0 0 0
SMALL
GASTEIGER

@<TRIPOS>ATOM
      1 C           6.7040   -2.4585   28.3045 C.2     1  UNL1        0.0919
      2 C           7.5541   -3.6475   27.9675 C.2     1  UNL1        0.0183
      3 C           7.4818   -4.2576   26.5990 C.2     1  UNL1        0.0511
      4 C           6.5594   -3.6786   25.5676 C.2     1  UNL1        0.2322
      5 N           6.2759   -4.0630   24.1457 N.2     1  UNL1       -0.0295
      6 C           5.2506   -3.1116   23.6039 C.2     1  UNL1        0.3932
      7 N           4.9004   -2.1391   24.6909 N.2     1  UNL1       -0.0333
      8 C           5.7093   -2.4896   25.9046 C.2     1  UNL1        0.2192
      9 C           5.7816   -1.8795   27.2730 C.3     1  UNL1        0.1226
     10 C           4.6763   -3.1295   22.2182 C.ar    1  UNL1        0.1694
     11 C           3.8707   -1.9642   21.7251 C.ar    1  UNL1        0.0270
     12 C           3.2964   -1.9821   20.3395 C.ar    1  UNL1        0.0033
     13 C           3.5277   -3.1653   19.4471 C.ar    1  UNL1        0.0207
     14 C           4.3333   -4.3306   19.9402 C.ar    1  UNL1        0.0991
     15 N           4.9075   -4.3127   21.3257 N.ar    1  UNL1       -0.2361
     16 C           2.4909   -0.8168   19.8464 C.ar    1  UNL1        0.0001
     17 C           1.1317   -0.5477   20.4211 C.ar    1  UNL1        0.0000
     18 C           0.3262    0.6176   19.9280 C.ar    1  UNL1        0.0000
     19 C           0.8797    1.5138   18.8602 C.ar    1  UNL1        0.0000
     20 C           2.2389    1.2448   18.2856 C.ar    1  UNL1        0.0000
     21 C           3.0444    0.0795   18.7787 C.ar    1  UNL1        0.0000
     22 S           6.7763   -1.8485   29.6729 S.O2    1  UNL1        0.0054
     23 O           8.1553   -2.4112   29.8509 O.2     1  UNL1       -0.1689
     24 O           5.3973   -1.2858   29.4949 O.2     1  UNL1       -0.1689
     25 C           7.0033   -2.1173   32.2470 C.3     1  UNL1        0.0276
     26 C           6.8486   -1.2385   31.0414 C.3     1  UNL1        0.1556
@<TRIPOS>BOND
     1    25    26    1
     2    26    22    1
     3    22    23    2
     4    22    24    2
     5    22     1    1
     6     1     2    2
     7     2     3    1
     8     3     4    2
     9     4     5    1
    10     5     6    2
    11     6    10    1
    12    10    11   ar
    13    11    12   ar
    14    12    16    1
    15    16    17   ar
    16    17    18   ar
    17    18    19   ar
    18    19    20   ar
    19    20    21   ar
    20    12    13   ar
    21    13    14   ar
    22    14    15   ar
    23     6     7    1
    24     7     8    2
    25     8     9    1
    26     9     1    1
    27     8     4    1
    28    15    10   ar
    29    21    16   ar
@<TRIPOS>MOLECULE
*****
 26 29 0 0 0
SMALL
GASTEIGER

@<TRIPOS>ATOM
      1 C           3.6091   -1.5294   20.6482 C.2     1  UNL1        0.0919
      2 C           4.3915   -2.3125   19.6360 C.2     1  UNL1        0.0183
      3 C           5.3991   -3.3273   20.0887 C.2     1  UNL1        0.0511
      4 C           5.6242   -3.5590   21.5534 C.2     1  UNL1        0.2322
      5 N           6.5429   -4.4855   22.2935 N.2     1  UNL1       -0.0295
      6 C           6.3281   -4.2750   23.7631 C.2     1  UNL1        0.3932
      7 N           5.2768   -3.2184   23.9313 N.2     1  UNL1       -0.0333
      8 C           4.8417   -2.7759   22.5656 C.2     1  UNL1        0.2192
      9 C           3.8342   -1.7611   22.1129 C.3     1  UNL1        0.1226
     10 C           7.0399   -4.9947   24.8702 C.ar    1  UNL1        0.1694
     11 C           6.7916   -4.6074   26.2978 C.ar    1  UNL1        0.0270
     12 C           7.5033   -5.3270   27.4049 C.ar    1  UNL1        0.0033
     13 C           8.4632   -6.4341   27.0842 C.ar    1  UNL1        0.0207
     14 C           8.7115   -6.8215   25.6565 C.ar    1  UNL1        0.0991
     15 N           7.9998   -6.1018   24.5495 N.ar    1  UNL1       -0.2361
     16 C           7.2550   -4.9397   28.8325 C.ar    1  UNL1        0.0001
     17 C           6.7489   -3.5661   29.1598 C.ar    1  UNL1        0.0000
     18 C           6.5007   -3.1787   30.5875 C.ar    1  UNL1        0.0000
     19 C           6.7584   -4.1649   31.6879 C.ar    1  UNL1        0.0000
     20 C           7.2644   -5.5385   31.3606 C.ar    1  UNL1        0.0000
     21 C           7.5127   -5.9259   29.9329 C.ar    1  UNL1        0.0000
     22 S           2.6015   -0.5145   20.1955 S.O2    1  UNL1        0.0054
     23 O           3.1385   -0.6047   18.7979 O.2     1  UNL1       -0.1689
     24 O           2.0644   -0.4244   21.5932 O.2     1  UNL1       -0.1689
     25 C           1.3146    0.6791   18.2800 C.3     1  UNL1        0.0276
     26 C           1.5939    0.5003   19.7429 C.3     1  UNL1        0.1556
@<TRIPOS>BOND
     1    25    26    1
     2    26    22    1
     3    22    23    2
     4    22    24    2
     5    22     1    1
     6     1     2    2
     7     2     3    1
     8     3     4    2
     9     4     5    1
    10     5     6    2
    11     6    10    1
    12    10    11   ar
    13    11    12   ar
    14    12    16    1
    15    16    17   ar
    16    17    18   ar
    17    18    19   ar
    18    19    20   ar
    19    20    21   ar
    20    12    13   ar
    21    13    14   ar
    22    14    15   ar
    23     6     7    1
    24     7     8    2
    25     8     9    1
    26     9     1    1
    27     8     4    1
    28    15    10   ar
    29    21    16   ar
@<TRIPOS>MOLECULE
*****
 26 29 0 0 0
SMALL
GASTEIGER

@<TRIPOS>ATOM
      1 C          -4.3125    4.7411   25.7365 C.2     1  UNL1        0.0919
      2 C          -3.1911    4.1170   26.5128 C.2     1  UNL1        0.0183
      3 C          -2.0320    3.4976   25.7896 C.2     1  UNL1        0.0511
      4 C          -1.9945    3.5023   24.2901 C.2     1  UNL1        0.2322
      5 N          -0.9909    2.9719   23.3095 N.2     1  UNL1       -0.0295
      6 C          -1.4922    3.2683   21.9272 C.2     1  UNL1        0.3932
      7 N          -2.8055    3.9818   22.0534 N.2     1  UNL1       -0.0333
      8 C          -3.1160    4.1264   23.5138 C.2     1  UNL1        0.2192
      9 C          -4.2750    4.7458   24.2370 C.3     1  UNL1        0.1226
     10 C          -0.8013    2.9133   20.6439 C.ar    1  UNL1        0.1694
     11 C           0.1792    1.7787   20.6089 C.ar    1  UNL1        0.0270
     12 C           0.8701    1.4237   19.3257 C.ar    1  UNL1        0.0033
     13 C           0.5805    2.2035   18.0774 C.ar    1  UNL1        0.0207
     14 C          -0.4000    3.3381   18.1124 C.ar    1  UNL1        0.0991
     15 N          -1.0909    3.6931   19.3956 N.ar    1  UNL1       -0.2361
     16 C           1.8506    0.2891   19.2907 C.ar    1  UNL1        0.0001
     17 C           1.8731   -0.7172   20.4028 C.ar    1  UNL1        0.0000
     18 C           2.8536   -1.8518   20.3678 C.ar    1  UNL1        0.0000
     19 C           3.8115   -1.9802   19.2207 C.ar    1  UNL1        0.0000
     20 C           3.7889   -0.9740   18.1086 C.ar    1  UNL1        0.0000
     21 C           2.8085    0.1607   18.1436 C.ar    1  UNL1        0.0000
     22 S          -5.4716    5.3605   26.4596 S.O2    1  UNL1        0.0054
     23 O          -6.2632    5.3668   25.1855 O.2     1  UNL1       -0.1689
     24 O          -4.6800    5.3543   27.7337 O.2     1  UNL1       -0.1689
     25 C          -7.7769    6.5575   26.4066 C.3     1  UNL1        0.0276
     26 C          -6.6306    5.9799   27.1828 C.3     1  UNL1        0.1556
@<TRIPOS>BOND
     1    25    26    1
     2    26    22    1
     3    22    23    2
     4    22    24    2
     5    22     1    1
     6     1     2    2
     7     2     3    1
     8     3     4    2
     9     4     5    1
    10     5     6    2
    11     6    10    1
    12    10    11   ar
    13    11    12   ar
    14    12    16    1
    15    16    17   ar
    16    17    18   ar
    17    18    19   ar
    18    19    20   ar
    19    20    21   ar
    20    12    13   ar
    21    13    14   ar
    22    14    15   ar
    23     6     7    1
    24     7     8    2
    25     8     9    1
    26     9     1    1
    27     8     4    1
    28    15    10   ar
    29    21    16   ar
@<TRIPOS>MOLECULE
*****
 26 29 0 0 0
SMALL
GASTEIGER

@<TRIPOS>ATOM
      1 C           1.5412    1.6200   28.9533 C.2     1  UNL1        0.0919
      2 C           2.9271    1.0479   28.9091 C.2     1  UNL1        0.0183
      3 C           3.4964    0.5611   27.6095 C.2     1  UNL1        0.0511
      4 C           2.6799    0.6465   26.3542 C.2     1  UNL1        0.2322
      5 N           2.9724    0.2493   24.9376 N.2     1  UNL1       -0.0295
      6 C           1.7673    0.5759   24.1063 C.2     1  UNL1        0.3932
      7 N           0.7300    1.1750   25.0091 N.2     1  UNL1       -0.0333
      8 C           1.2941    1.2186   26.3984 C.2     1  UNL1        0.2192
      9 C           0.7247    1.7054   27.6979 C.3     1  UNL1        0.1226
     10 C           1.6246    0.3441   22.6311 C.ar    1  UNL1        0.1694
     11 C           2.6232   -0.5084   21.9059 C.ar    1  UNL1        0.0270
     12 C           2.4806   -0.7402   20.4308 C.ar    1  UNL1        0.0033
     13 C           1.3393   -0.1195   19.6810 C.ar    1  UNL1        0.0207
     14 C           0.3407    0.7331   20.4063 C.ar    1  UNL1        0.0991
     15 N           0.4834    0.9649   21.8814 N.ar    1  UNL1       -0.2361
     16 C           3.4791   -1.5927   19.7055 C.ar    1  UNL1        0.0001
     17 C           3.2966   -3.0806   19.6520 C.ar    1  UNL1        0.0000
     18 C           4.2952   -3.9331   18.9268 C.ar    1  UNL1        0.0000
     19 C           5.4763   -3.2978   18.2550 C.ar    1  UNL1        0.0000
     20 C           5.6588   -1.8099   18.3085 C.ar    1  UNL1        0.0000
     21 C           4.6602   -0.9574   19.0338 C.ar    1  UNL1        0.0000
     22 S           0.9719    2.1068   30.2529 S.O2    1  UNL1        0.0054
     23 O           0.5541    3.3862   29.5906 O.2     1  UNL1       -0.1689
     24 O           1.3897    0.8274   30.9151 O.2     1  UNL1       -0.1689
     25 C           0.5030    4.0447   31.9186 C.3     1  UNL1        0.0276
     26 C           0.4025    2.5936   31.5524 C.3     1  UNL1        0.1556
@<TRIPOS>BOND
     1    25    26    1
     2    26    22    1
     3    22    23    2
     4    22    24    2
     5    22     1    1
     6     1     2    2
     7     2     3    1
     8     3     4    2
     9     4     5    1
    10     5     6    2
    11     6    10    1
    12    10    11   ar
    13    11    12   ar
    14    12    16    1
    15    16    17   ar
    16    17    18   ar
    17    18    19   ar
    18    19    20   ar
    19    20    21   ar
    20    12    13   ar
    21    13    14   ar
    22    14    15   ar
    23     6     7    1
    24     7     8    2
    25     8     9    1
    26     9     1    1
    27     8     4    1
    28    15    10   ar
    29    21    16   ar
