@<TRIPOS>MOLECULE
*****
 24 27 0 0 0
SMALL
GASTEIGER

@<TRIPOS>ATOM
      1 N         -12.5837  -17.2945   22.3640 N.pl3   1  UNL1       -0.3380
      2 C         -11.2981  -17.8111   21.7893 C.2     1  UNL1        0.1482
      3 N         -10.0041  -17.5681   22.5079 N.2     1  UNL1       -0.2484
      4 C          -8.7185  -18.0848   21.9332 C.3     1  UNL1        0.1352
      5 C          -7.4245  -17.8418   22.6519 C.3     1  UNL1        0.1685
      6 O          -6.1389  -18.3585   22.0772 O.3     1  UNL1       -0.3539
      7 C          -6.1474  -19.1182   20.7837 C.3     1  UNL1        0.1153
      8 C          -7.4414  -19.3612   20.0651 C.3     1  UNL1        0.0327
      9 C          -8.7270  -18.8445   20.6399 C.3     1  UNL1        0.0407
     10 C         -10.0210  -19.0875   19.9213 C.3     1  UNL1        0.0672
     11 S         -11.3066  -18.5708   20.4960 S.3     1  UNL1       -0.0807
     12 H         -12.5782  -16.7958   23.2129 H       1  UNL1        0.1442
     13 H         -13.4330  -17.4540   21.8924 H       1  UNL1        0.1442
     14 C          -8.7101  -17.3251   23.2266 C.ar    1  UNL1        0.0278
     15 C          -8.3409  -15.8713   23.2401 C.ar    1  UNL1        0.0021
     16 C          -8.3324  -15.1116   24.5335 C.ar    1  UNL1        0.0295
     17 C          -8.6931  -15.8057   25.8134 C.ar    1  UNL1        0.1424
     18 F          -8.6847  -15.0461   27.1067 F       1  UNL1       -0.2041
     19 C          -9.0624  -17.2596   25.7998 C.ar    1  UNL1        0.0590
     20 C          -9.0708  -18.0192   24.5065 C.ar    1  UNL1        0.1402
     21 F          -9.4400  -19.4730   24.4929 F       1  UNL1       -0.2044
     22 C          -4.8618  -19.6349   20.2090 C.3     1  UNL1        0.0272
     23 C          -3.5636  -19.3869   19.4996 C.3     1  UNL1        0.0025
     24 C          -3.9333  -20.7777   19.9230 C.3     1  UNL1        0.0025
@<TRIPOS>BOND
     1     1     2    1
     2     2     3    2
     3     3     4    1
     4     4    14    1
     5    14    15   ar
     6    15    16   ar
     7    16    17   ar
     8    17    18    1
     9    17    19   ar
    10    19    20   ar
    11    20    21    1
    12     4     5    1
    13     5     6    1
    14     6     7    1
    15     7    22    1
    16    22    23    1
    17    23    24    1
    18     7     8    1
    19     9     8    1
    20     9    10    1
    21    10    11    1
    22    11     2    1
    23     9     4    1
    24    20    14   ar
    25    24    22    1
    26     1    12    1
    27     1    13    1
@<TRIPOS>MOLECULE
*****
 24 27 0 0 0
SMALL
GASTEIGER

@<TRIPOS>ATOM
      1 N          -8.4687  -15.9848   24.8983 N.pl3   1  UNL1       -0.3380
      2 C          -8.3375  -16.8471   23.6780 C.2     1  UNL1        0.1482
      3 N          -9.5391  -17.5577   23.1291 N.2     1  UNL1       -0.2484
      4 C          -9.4079  -18.4200   21.9088 C.3     1  UNL1        0.1352
      5 C         -10.6096  -19.1306   21.3599 C.3     1  UNL1        0.1685
      6 O         -10.4784  -19.9929   20.1396 O.3     1  UNL1       -0.3539
      7 C          -9.1457  -20.1447   19.4682 C.3     1  UNL1        0.1153
      8 C          -7.9441  -19.4342   20.0171 C.3     1  UNL1        0.0327
      9 C          -8.0752  -18.5718   21.2374 C.3     1  UNL1        0.0407
     10 C          -6.8737  -17.8613   21.7863 C.3     1  UNL1        0.0672
     11 S          -7.0048  -16.9989   23.0066 S.3     1  UNL1       -0.0807
     12 H          -9.3434  -15.8852   25.3390 H       1  UNL1        0.1442
     13 H          -7.6800  -15.5184   25.2586 H       1  UNL1        0.1442
     14 C         -10.7407  -18.2683   22.5802 C.ar    1  UNL1        0.0278
     15 C         -11.7328  -17.2703   22.0609 C.ar    1  UNL1        0.0021
     16 C         -13.0656  -17.1186   22.7323 C.ar    1  UNL1        0.0295
     17 C         -13.4062  -17.9648   23.9231 C.ar    1  UNL1        0.1424
     18 F         -14.7389  -17.8131   24.5945 F       1  UNL1       -0.2041
     19 C         -12.4140  -18.9628   24.4424 C.ar    1  UNL1        0.0590
     20 C         -11.0813  -19.1145   23.7710 C.ar    1  UNL1        0.1402
     21 F         -10.0891  -20.1124   24.2904 F       1  UNL1       -0.2044
     22 C          -9.0145  -21.0070   18.2479 C.3     1  UNL1        0.0272
     23 C          -8.5753  -22.2886   17.6040 C.3     1  UNL1        0.0025
     24 C          -9.2266  -21.2191   16.7782 C.3     1  UNL1        0.0025
@<TRIPOS>BOND
     1     1     2    1
     2     2     3    2
     3     3     4    1
     4     4    14    1
     5    14    15   ar
     6    15    16   ar
     7    16    17   ar
     8    17    18    1
     9    17    19   ar
    10    19    20   ar
    11    20    21    1
    12     4     5    1
    13     5     6    1
    14     6     7    1
    15     7    22    1
    16    22    23    1
    17    23    24    1
    18     7     8    1
    19     9     8    1
    20     9    10    1
    21    10    11    1
    22    11     2    1
    23     9     4    1
    24    20    14   ar
    25    24    22    1
    26     1    12    1
    27     1    13    1
@<TRIPOS>MOLECULE
*****
 24 27 0 0 0
SMALL
GASTEIGER

@<TRIPOS>ATOM
      1 N          -8.4428  -14.8629   26.4016 N.pl3   1  UNL1       -0.3380
      2 C          -7.5580  -15.6028   25.4425 C.2     1  UNL1        0.1482
      3 N          -8.1622  -16.5087   24.4110 N.2     1  UNL1       -0.2484
      4 C          -7.2774  -17.2486   23.4520 C.3     1  UNL1        0.1352
      5 C          -7.8816  -18.1546   22.4204 C.3     1  UNL1        0.1685
      6 O          -6.9969  -18.8945   21.4613 O.3     1  UNL1       -0.3539
      7 C          -5.5078  -18.7283   21.5338 C.3     1  UNL1        0.1153
      8 C          -4.9036  -17.8223   22.5654 C.3     1  UNL1        0.0327
      9 C          -5.7884  -17.0824   23.5244 C.3     1  UNL1        0.0407
     10 C          -5.1842  -16.1764   24.5559 C.3     1  UNL1        0.0672
     11 S          -6.0690  -15.4366   25.5150 S.3     1  UNL1       -0.0807
     12 H          -9.4200  -14.9720   26.3540 H       1  UNL1        0.1442
     13 H          -8.0462  -14.2683   27.0786 H       1  UNL1        0.1442
     14 C          -8.7664  -17.4148   23.3795 C.ar    1  UNL1        0.0278
     15 C          -9.4434  -18.4753   24.1962 C.ar    1  UNL1        0.0021
     16 C         -10.9324  -18.6415   24.1237 C.ar    1  UNL1        0.0295
     17 C         -11.7445  -17.7471   23.2344 C.ar    1  UNL1        0.1424
     18 F         -13.2334  -17.9133   23.1619 F       1  UNL1       -0.2041
     19 C         -11.0674  -16.6866   22.4177 C.ar    1  UNL1        0.0590
     20 C          -9.5785  -16.5204   22.4902 C.ar    1  UNL1        0.1402
     21 F          -8.9014  -15.4599   21.6735 F       1  UNL1       -0.2044
     22 C          -4.6230  -19.4681   20.5748 C.3     1  UNL1        0.0272
     23 C          -3.5278  -19.4634   19.5499 C.3     1  UNL1        0.0025
     24 C          -4.1858  -20.7542   19.9386 C.3     1  UNL1        0.0025
@<TRIPOS>BOND
     1     1     2    1
     2     2     3    2
     3     3     4    1
     4     4    14    1
     5    14    15   ar
     6    15    16   ar
     7    16    17   ar
     8    17    18    1
     9    17    19   ar
    10    19    20   ar
    11    20    21    1
    12     4     5    1
    13     5     6    1
    14     6     7    1
    15     7    22    1
    16    22    23    1
    17    23    24    1
    18     7     8    1
    19     9     8    1
    20     9    10    1
    21    10    11    1
    22    11     2    1
    23     9     4    1
    24    20    14   ar
    25    24    22    1
    26     1    12    1
    27     1    13    1
@<TRIPOS>MOLECULE
*****
 24 27 0 0 0
SMALL
GASTEIGER

@<TRIPOS>ATOM
      1 N          -9.2827  -14.5314   25.5892 N.pl3   1  UNL1       -0.3380
      2 C          -8.4791  -15.4836   24.7541 C.2     1  UNL1        0.1482
      3 N          -9.1630  -16.5997   24.0215 N.2     1  UNL1       -0.2484
      4 C          -8.3593  -17.5519   23.1864 C.3     1  UNL1        0.1352
      5 C          -9.0432  -18.6681   22.4538 C.3     1  UNL1        0.1685
      6 O          -8.2396  -19.6203   21.6187 O.3     1  UNL1       -0.3539
      7 C          -6.7521  -19.4563   21.5160 C.3     1  UNL1        0.1153
      8 C          -6.0683  -18.3402   22.2485 C.3     1  UNL1        0.0327
      9 C          -6.8719  -17.3880   23.0837 C.3     1  UNL1        0.0407
     10 C          -6.1881  -16.2719   23.8162 C.3     1  UNL1        0.0672
     11 S          -6.9917  -15.3197   24.6514 S.3     1  UNL1       -0.0807
     12 H         -10.2590  -14.6390   25.6566 H       1  UNL1        0.1442
     13 H          -8.8339  -13.7989   26.0700 H       1  UNL1        0.1442
     14 C          -9.8469  -17.7159   23.2890 C.ar    1  UNL1        0.0278
     15 C         -10.7469  -17.0266   22.3068 C.ar    1  UNL1        0.0021
     16 C         -12.2344  -17.1906   22.4095 C.ar    1  UNL1        0.0295
     17 C         -12.8218  -18.0438   23.4943 C.ar    1  UNL1        0.1424
     18 F         -14.3093  -18.2078   23.5970 F       1  UNL1       -0.2041
     19 C         -11.9217  -18.7331   24.4765 C.ar    1  UNL1        0.0590
     20 C         -10.4342  -18.5692   24.3739 C.ar    1  UNL1        0.1402
     21 F          -9.5341  -19.2585   25.3561 F       1  UNL1       -0.2044
     22 C          -5.9485  -20.4085   20.6808 C.3     1  UNL1        0.0272
     23 C          -5.8563  -21.6703   19.8750 C.3     1  UNL1        0.0025
     24 C          -4.6487  -20.7959   20.0401 C.3     1  UNL1        0.0025
@<TRIPOS>BOND
     1     1     2    1
     2     2     3    2
     3     3     4    1
     4     4    14    1
     5    14    15   ar
     6    15    16   ar
     7    16    17   ar
     8    17    18    1
     9    17    19   ar
    10    19    20   ar
    11    20    21    1
    12     4     5    1
    13     5     6    1
    14     6     7    1
    15     7    22    1
    16    22    23    1
    17    23    24    1
    18     7     8    1
    19     9     8    1
    20     9    10    1
    21    10    11    1
    22    11     2    1
    23     9     4    1
    24    20    14   ar
    25    24    22    1
    26     1    12    1
    27     1    13    1
@<TRIPOS>MOLECULE
*****
 24 27 0 0 0
SMALL
GASTEIGER

@<TRIPOS>ATOM
      1 N         -10.5111  -19.9668   19.8908 N.pl3   1  UNL1       -0.3380
      2 C          -9.5866  -19.2036   20.7924 C.2     1  UNL1        0.1482
      3 N         -10.1241  -18.5264   22.0181 N.2     1  UNL1       -0.2484
      4 C          -9.1997  -17.7633   22.9198 C.3     1  UNL1        0.1352
      5 C          -9.7373  -17.0861   24.1455 C.3     1  UNL1        0.1685
      6 O          -8.8128  -16.3229   25.0472 O.3     1  UNL1       -0.3539
      7 C          -7.3507  -16.2370   24.7231 C.3     1  UNL1        0.1153
      8 C          -6.8132  -16.9142   23.4974 C.3     1  UNL1        0.0327
      9 C          -7.7377  -17.6774   22.5957 C.3     1  UNL1        0.0407
     10 C          -7.2001  -18.3546   21.3700 C.3     1  UNL1        0.0672
     11 S          -8.1246  -19.1177   20.4684 S.3     1  UNL1       -0.0807
     12 H         -11.4707  -20.0232   20.1035 H       1  UNL1        0.1442
     13 H         -10.1582  -20.4112   19.0863 H       1  UNL1        0.1442
     14 C         -10.6618  -17.8492   23.2439 C.ar    1  UNL1        0.0278
     15 C         -11.1587  -18.8968   24.1955 C.ar    1  UNL1        0.0021
     16 C         -12.6208  -18.9827   24.5196 C.ar    1  UNL1        0.0295
     17 C         -13.5859  -18.0210   23.8921 C.ar    1  UNL1        0.1424
     18 F         -15.0479  -18.1069   24.2161 F       1  UNL1       -0.2041
     19 C         -13.0889  -16.9734   22.9404 C.ar    1  UNL1        0.0590
     20 C         -11.6268  -16.8875   22.6164 C.ar    1  UNL1        0.1402
     21 F         -11.1298  -15.8398   21.6648 F       1  UNL1       -0.2044
     22 C          -6.4263  -15.4739   25.6247 C.3     1  UNL1        0.0272
     23 C          -5.1049  -14.8063   25.8659 C.3     1  UNL1        0.0025
     24 C          -6.1465  -14.8197   26.9452 C.3     1  UNL1        0.0025
@<TRIPOS>BOND
     1     1     2    1
     2     2     3    2
     3     3     4    1
     4     4    14    1
     5    14    15   ar
     6    15    16   ar
     7    16    17   ar
     8    17    18    1
     9    17    19   ar
    10    19    20   ar
    11    20    21    1
    12     4     5    1
    13     5     6    1
    14     6     7    1
    15     7    22    1
    16    22    23    1
    17    23    24    1
    18     7     8    1
    19     9     8    1
    20     9    10    1
    21    10    11    1
    22    11     2    1
    23     9     4    1
    24    20    14   ar
    25    24    22    1
    26     1    12    1
    27     1    13    1
@<TRIPOS>MOLECULE
*****
 24 27 0 0 0
SMALL
GASTEIGER

@<TRIPOS>ATOM
      1 N          -9.9075   -3.5265   19.0181 N.pl3   1  UNL1       -0.3380
      2 C         -10.8916   -4.6495   18.8746 C.2     1  UNL1        0.1482
      3 N         -12.3621   -4.3569   18.8299 N.2     1  UNL1       -0.2484
      4 C         -13.3462   -5.4798   18.6864 C.3     1  UNL1        0.1352
      5 C         -14.8167   -5.1872   18.6417 C.3     1  UNL1        0.1685
      6 O         -15.8008   -6.3101   18.4982 O.3     1  UNL1       -0.3539
      7 C         -15.3144   -7.7257   18.3994 C.3     1  UNL1        0.1153
      8 C         -13.8439   -8.0182   18.4441 C.3     1  UNL1        0.0327
      9 C         -12.8598   -6.8953   18.5876 C.3     1  UNL1        0.0407
     10 C         -11.3893   -7.1879   18.6323 C.3     1  UNL1        0.0672
     11 S         -10.4052   -6.0649   18.7758 S.3     1  UNL1       -0.0807
     12 H         -10.2267   -2.5975   19.0829 H       1  UNL1        0.1442
     13 H          -8.9423   -3.7186   19.0474 H       1  UNL1        0.1442
     14 C         -13.8326   -4.0643   18.7852 C.ar    1  UNL1        0.0278
     15 C         -13.9952   -3.2387   17.5435 C.ar    1  UNL1        0.0021
     16 C         -14.4816   -1.8232   17.6423 C.ar    1  UNL1        0.0295
     17 C         -14.8055   -1.2333   18.9829 C.ar    1  UNL1        0.1424
     18 F         -15.2919    0.1822   19.0817 F       1  UNL1       -0.2041
     19 C         -14.6429   -2.0590   20.2246 C.ar    1  UNL1        0.0590
     20 C         -14.1565   -3.4744   20.1258 C.ar    1  UNL1        0.1402
     21 F         -13.9939   -4.3001   21.3676 F       1  UNL1       -0.2044
     22 C         -16.2985   -8.8486   18.2559 C.3     1  UNL1        0.0272
     23 C         -17.6203   -9.3630   17.7681 C.3     1  UNL1        0.0025
     24 C         -16.6811  -10.2791   18.4953 C.3     1  UNL1        0.0025
@<TRIPOS>BOND
     1     1     2    1
     2     2     3    2
     3     3     4    1
     4     4    14    1
     5    14    15   ar
     6    15    16   ar
     7    16    17   ar
     8    17    18    1
     9    17    19   ar
    10    19    20   ar
    11    20    21    1
    12     4     5    1
    13     5     6    1
    14     6     7    1
    15     7    22    1
    16    22    23    1
    17    23    24    1
    18     7     8    1
    19     9     8    1
    20     9    10    1
    21    10    11    1
    22    11     2    1
    23     9     4    1
    24    20    14   ar
    25    24    22    1
    26     1    12    1
    27     1    13    1
@<TRIPOS>MOLECULE
*****
 24 27 0 0 0
SMALL
GASTEIGER

@<TRIPOS>ATOM
      1 N         -10.3198   -8.0476   18.7610 N.pl3   1  UNL1       -0.3380
      2 C         -10.6374   -6.5827   18.7049 C.2     1  UNL1        0.1482
      3 N         -12.0417   -6.1295   18.4355 N.2     1  UNL1       -0.2484
      4 C         -12.3593   -4.6646   18.3794 C.3     1  UNL1        0.1352
      5 C         -13.7637   -4.2115   18.1099 C.3     1  UNL1        0.1685
      6 O         -14.0813   -2.7466   18.0538 O.3     1  UNL1       -0.3539
      7 C         -12.9946   -1.7348   18.2671 C.3     1  UNL1        0.1153
      8 C         -11.5903   -2.1880   18.5366 C.3     1  UNL1        0.0327
      9 C         -11.2727   -3.6529   18.5927 C.3     1  UNL1        0.0407
     10 C          -9.8684   -4.1061   18.8621 C.3     1  UNL1        0.0672
     11 S          -9.5508   -5.5710   18.9182 S.3     1  UNL1       -0.0807
     12 H         -11.0330   -8.7117   18.6210 H       1  UNL1        0.1442
     13 H          -9.3981   -8.3450   18.9378 H       1  UNL1        0.1442
     14 C         -13.4460   -5.6764   18.1660 C.ar    1  UNL1        0.0278
     15 C         -13.7128   -6.2118   16.7905 C.ar    1  UNL1        0.0021
     16 C         -14.7995   -7.2236   16.5772 C.ar    1  UNL1        0.0295
     17 C         -15.6194   -7.6999   17.7395 C.ar    1  UNL1        0.1424
     18 F         -16.7061   -8.7116   17.5262 F       1  UNL1       -0.2041
     19 C         -15.3527   -7.1644   19.1151 C.ar    1  UNL1        0.0590
     20 C         -14.2660   -6.1527   19.3283 C.ar    1  UNL1        0.1402
     21 F         -13.9992   -5.6172   20.7039 F       1  UNL1       -0.2044
     22 C         -13.3122   -0.2699   18.2110 C.3     1  UNL1        0.0272
     23 C         -14.1878    0.8852   18.5971 C.3     1  UNL1        0.0025
     24 C         -12.9867    1.1123   17.7278 C.3     1  UNL1        0.0025
@<TRIPOS>BOND
     1     1     2    1
     2     2     3    2
     3     3     4    1
     4     4    14    1
     5    14    15   ar
     6    15    16   ar
     7    16    17   ar
     8    17    18    1
     9    17    19   ar
    10    19    20   ar
    11    20    21    1
    12     4     5    1
    13     5     6    1
    14     6     7    1
    15     7    22    1
    16    22    23    1
    17    23    24    1
    18     7     8    1
    19     9     8    1
    20     9    10    1
    21    10    11    1
    22    11     2    1
    23     9     4    1
    24    20    14   ar
    25    24    22    1
    26     1    12    1
    27     1    13    1
@<TRIPOS>MOLECULE
*****
 24 27 0 0 0
SMALL
GASTEIGER

@<TRIPOS>ATOM
      1 N         -10.8110  -19.1358   19.3440 N.pl3   1  UNL1       -0.3380
      2 C         -10.5039  -18.4017   20.6155 C.2     1  UNL1        0.1482
      3 N          -9.1428  -18.5132   21.2360 N.2     1  UNL1       -0.2484
      4 C          -8.8358  -17.7792   22.5076 C.3     1  UNL1        0.1352
      5 C          -7.4746  -17.8908   23.1280 C.3     1  UNL1        0.1685
      6 O          -7.1676  -17.1567   24.3996 O.3     1  UNL1       -0.3539
      7 C          -8.2216  -16.3110   25.0507 C.3     1  UNL1        0.1153
      8 C          -9.5827  -16.1995   24.4302 C.3     1  UNL1        0.0327
      9 C          -9.8898  -16.9335   23.1587 C.3     1  UNL1        0.0407
     10 C         -11.2508  -16.8220   22.5382 C.3     1  UNL1        0.0672
     11 S         -11.5579  -17.5561   21.2666 S.3     1  UNL1       -0.0807
     12 H         -10.1192  -19.6908   18.9167 H       1  UNL1        0.1442
     13 H         -11.7043  -19.0625   18.9368 H       1  UNL1        0.1442
     14 C          -7.7817  -18.6248   21.8565 C.ar    1  UNL1        0.0278
     15 C          -6.9383  -18.0555   20.7545 C.ar    1  UNL1        0.0021
     16 C          -5.8842  -18.9011   20.1034 C.ar    1  UNL1        0.0295
     17 C          -5.6736  -20.3161   20.5544 C.ar    1  UNL1        0.1424
     18 F          -4.6196  -21.1618   19.9034 F       1  UNL1       -0.2041
     19 C          -6.5171  -20.8855   21.6564 C.ar    1  UNL1        0.0590
     20 C          -7.5711  -20.0398   22.3075 C.ar    1  UNL1        0.1402
     21 F          -8.4146  -20.6092   23.4095 F       1  UNL1       -0.2044
     22 C          -7.9146  -15.5769   26.3222 C.3     1  UNL1        0.0272
     23 C          -8.3781  -14.9379   27.5976 C.3     1  UNL1        0.0025
     24 C          -6.9192  -14.9445   27.2491 C.3     1  UNL1        0.0025
@<TRIPOS>BOND
     1     1     2    1
     2     2     3    2
     3     3     4    1
     4     4    14    1
     5    14    15   ar
     6    15    16   ar
     7    16    17   ar
     8    17    18    1
     9    17    19   ar
    10    19    20   ar
    11    20    21    1
    12     4     5    1
    13     5     6    1
    14     6     7    1
    15     7    22    1
    16    22    23    1
    17    23    24    1
    18     7     8    1
    19     9     8    1
    20     9    10    1
    21    10    11    1
    22    11     2    1
    23     9     4    1
    24    20    14   ar
    25    24    22    1
    26     1    12    1
    27     1    13    1
@<TRIPOS>MOLECULE
*****
 24 27 0 0 0
SMALL
GASTEIGER

@<TRIPOS>ATOM
      1 N         -14.4988   -9.5063   18.9667 N.pl3   1  UNL1       -0.3380
      2 C         -15.3436   -8.2739   19.0999 C.2     1  UNL1        0.1482
      3 N         -14.7579   -6.9267   18.7966 N.2     1  UNL1       -0.2484
      4 C         -15.6026   -5.6944   18.9299 C.3     1  UNL1        0.1352
      5 C         -15.0169   -4.3472   18.6265 C.3     1  UNL1        0.1685
      6 O         -15.8617   -3.1149   18.7598 O.3     1  UNL1       -0.3539
      7 C         -17.2921   -3.2298   19.1964 C.3     1  UNL1        0.1153
      8 C         -17.8778   -4.5769   19.4998 C.3     1  UNL1        0.0327
      9 C         -17.0330   -5.8093   19.3665 C.3     1  UNL1        0.0407
     10 C         -17.6187   -7.1564   19.6698 C.3     1  UNL1        0.0672
     11 S         -16.7740   -8.3888   19.5366 S.3     1  UNL1       -0.0807
     12 H         -13.5600   -9.4309   18.6801 H       1  UNL1        0.1442
     13 H         -14.8832  -10.3905   19.1658 H       1  UNL1        0.1442
     14 C         -14.1722   -5.5795   18.4932 C.ar    1  UNL1        0.0278
     15 C         -13.8184   -5.7098   17.0414 C.ar    1  UNL1        0.0021
     16 C         -12.3879   -5.5949   16.6047 C.ar    1  UNL1        0.0295
     17 C         -11.3113   -5.3497   17.6200 C.ar    1  UNL1        0.1424
     18 F          -9.8808   -5.2348   17.1834 F       1  UNL1       -0.2041
     19 C         -11.6651   -5.2194   19.0719 C.ar    1  UNL1        0.0590
     20 C         -13.0955   -5.3343   19.5084 C.ar    1  UNL1        0.1402
     21 F         -13.4493   -5.2040   20.9603 F       1  UNL1       -0.2044
     22 C         -18.1369   -1.9974   19.3297 C.3     1  UNL1        0.0272
     23 C         -18.7579   -0.9347   20.1869 C.3     1  UNL1        0.0025
     24 C         -18.9790   -0.9258   18.7033 C.3     1  UNL1        0.0025
@<TRIPOS>BOND
     1     1     2    1
     2     2     3    2
     3     3     4    1
     4     4    14    1
     5    14    15   ar
     6    15    16   ar
     7    16    17   ar
     8    17    18    1
     9    17    19   ar
    10    19    20   ar
    11    20    21    1
    12     4     5    1
    13     5     6    1
    14     6     7    1
    15     7    22    1
    16    22    23    1
    17    23    24    1
    18     7     8    1
    19     9     8    1
    20     9    10    1
    21    10    11    1
    22    11     2    1
    23     9     4    1
    24    20    14   ar
    25    24    22    1
    26     1    12    1
    27     1    13    1
