@<TRIPOS>MOLECULE
*****
 43 45 0 0 0
SMALL
GASTEIGER

@<TRIPOS>ATOM
      1 C          -0.1433    2.6882   20.8076 C.ar    1  UNL1        0.0550
      2 S          -1.4479    2.8701   20.0900 S.2     1  UNL1       -0.0512
      3 C          -2.2217    3.9415   20.7995 C.ar    1  UNL1        0.1657
      4 N          -1.3954    4.4217   21.9556 N.ar    1  UNL1       -0.2193
      5 C          -0.1108    3.6471   21.9605 C.ar    1  UNL1        0.1426
      6 C           1.0095    3.8040   22.9456 C.2     1  UNL1        0.2673
      7 O           2.1359    4.7513   22.6558 O.2     1  UNL1       -0.2682
      8 N           1.0035    3.0136   24.2203 N.am    1  UNL1       -0.2747
      9 C           2.1239    3.1704   25.2054 C.3     1  UNL1        0.0966
     10 C           2.1178    2.3800   26.4802 C.3     1  UNL1        0.0568
     11 C           0.9916    1.4327   26.7700 C.3     1  UNL1        0.1644
     12 F           0.9856    0.6422   28.0448 F       1  UNL1       -0.2372
     13 C          -0.1288    1.2757   25.7850 C.3     1  UNL1        0.0568
     14 C          -0.1228    2.0662   24.5102 C.3     1  UNL1        0.0966
     15 C           3.1031   -0.2232   19.6964 C.ar    1  UNL1        0.1333
     16 C           1.9077   -0.6927   20.4714 C.ar    1  UNL1        0.0208
     17 C           0.8256    0.2778   20.8418 C.ar    1  UNL1        0.0028
     18 C           0.9388    1.7177   20.4372 C.ar    1  UNL1        0.0192
     19 C           2.1341    2.1871   19.6621 C.ar    1  UNL1        0.0700
     20 CL          2.2474    3.6271   19.2574 Cl      1  UNL1       -0.0813
     21 C           3.2163    1.2167   19.2917 C.ar    1  UNL1        0.0867
     22 CL          4.4116    1.6862   18.5166 Cl      1  UNL1       -0.0800
     23 S           4.1852   -1.1937   19.3260 S.O2    1  UNL1        0.0613
     24 O           4.8509   -0.9563   20.6490 O.2     1  UNL1       -0.1530
     25 O           3.5194   -1.4311   18.0029 O.2     1  UNL1       -0.1530
     26 N           5.2673   -2.1642   18.9556 N.3     1  UNL1       -0.1723
     27 H           5.1231   -2.4058   17.9751 H       1  UNL1        0.1491
     28 C           6.6871   -3.7821   20.4104 C.3     1  UNL1        0.0278
     29 C           5.4042   -3.4566   19.7045 C.3     1  UNL1        0.1701
     30 C           4.2583   -4.4235   19.7474 C.3     1  UNL1        0.4118
     31 F           3.1124   -5.3905   19.7904 F       1  UNL1       -0.1685
     32 F           4.0307   -4.0896   21.1920 F       1  UNL1       -0.1685
     33 F           4.4859   -4.7574   18.3029 F       1  UNL1       -0.1685
     34 N          -3.5829    4.4443   20.4197 N.am    1  UNL1       -0.2641
     35 C          -4.8093    3.7561   20.9415 C.2     1  UNL1        0.2299
     36 O          -4.6744    2.5650   21.8432 O.2     1  UNL1       -0.2746
     37 H          -3.6714    5.2261   19.8278 H       1  UNL1        0.1567
     38 C          -6.1704    4.2589   20.5616 C.3     1  UNL1        0.1122
     39 C          -6.4943    4.5325   19.1226 C.3     1  UNL1        0.0971
     40 C          -6.3893    3.0669   18.8205 C.3     1  UNL1        0.0298
     41 C          -6.5992    5.9980   19.4250 C.3     1  UNL1        0.0298
     42 O          -6.8181    4.8060   17.6838 O.3     1  UNL1       -0.3862
     43 H          -6.8239    3.9715   17.1894 H       1  UNL1        0.2102
@<TRIPOS>BOND
     1    29    28    1
     2    29    26    1
     3    26    23    1
     4    23    24    2
     5    23    25    2
     6    23    15    1
     7    15    16   ar
     8    16    17   ar
     9    17    18   ar
    10    18     1    1
    11     1     2   ar
    12     2     3   ar
    13     3    34    1
    14    34    35   am
    15    35    36    2
    16    35    38    1
    17    38    39    1
    18    39    40    1
    19    39    41    1
    20    39    42    1
    21     3     4   ar
    22     4     5   ar
    23     5     6    1
    24     6     7    2
    25     6     8   am
    26     8     9    1
    27     9    10    1
    28    10    11    1
    29    11    12    1
    30    11    13    1
    31    13    14    1
    32    18    19   ar
    33    19    20    1
    34    19    21   ar
    35    21    22    1
    36    29    30    1
    37    30    31    1
    38    30    32    1
    39    30    33    1
    40    21    15   ar
    41     5     1   ar
    42    14     8    1
    43    26    27    1
    44    34    37    1
    45    42    43    1
@<TRIPOS>MOLECULE
*****
 43 45 0 0 0
SMALL
GASTEIGER

@<TRIPOS>ATOM
      1 C           0.0637    3.0610   20.1488 C.ar    1  UNL1        0.0550
      2 S          -1.2783    3.2401   19.5030 S.2     1  UNL1       -0.0512
      3 C          -2.0822    4.1760   20.3561 C.ar    1  UNL1        0.1657
      4 N          -1.2371    4.5753   21.5293 N.ar    1  UNL1       -0.2193
      5 C           0.0891    3.8862   21.4011 C.ar    1  UNL1        0.1426
      6 C           1.2389    4.0021   22.3575 C.2     1  UNL1        0.2673
      7 O           2.3477    4.9744   22.0830 O.2     1  UNL1       -0.2682
      8 N           1.2800    3.1457   23.5882 N.am    1  UNL1       -0.2747
      9 C           2.4298    3.2615   24.5446 C.3     1  UNL1        0.0966
     10 C           2.4708    2.4051   25.7754 C.3     1  UNL1        0.0568
     11 C           1.3621    1.4328   26.0498 C.3     1  UNL1        0.1644
     12 F           1.4031    0.5763   27.2806 F       1  UNL1       -0.2372
     13 C           0.2123    1.3169   25.0935 C.3     1  UNL1        0.0568
     14 C           0.1712    2.1733   23.8628 C.3     1  UNL1        0.0966
     15 C           3.4232    0.4981   18.6012 C.ar    1  UNL1        0.1333
     16 C           3.3476    1.9466   18.2191 C.ar    1  UNL1        0.0208
     17 C           2.2278    2.8009   18.7350 C.ar    1  UNL1        0.0028
     18 C           1.1835    2.2067   19.6329 C.ar    1  UNL1        0.0192
     19 C           1.2591    0.7582   20.0150 C.ar    1  UNL1        0.0700
     20 CL          0.2148    0.1639   20.9130 Cl      1  UNL1       -0.0813
     21 C           2.3789   -0.0961   19.4992 C.ar    1  UNL1        0.0867
     22 CL          2.4545   -1.5447   19.8813 Cl      1  UNL1       -0.0800
     23 S           4.5430   -0.3562   18.0853 S.O2    1  UNL1        0.0613
     24 O           3.6393   -0.8952   17.0163 O.2     1  UNL1       -0.1530
     25 O           5.4467    0.1828   19.1544 O.2     1  UNL1       -0.1530
     26 N           5.6629   -1.2105   17.5694 N.3     1  UNL1       -0.1723
     27 H           5.2954   -1.7265   16.7700 H       1  UNL1        0.1491
     28 C           7.8080   -2.2311   18.6216 C.3     1  UNL1        0.0278
     29 C           6.3156   -2.2161   18.4709 C.3     1  UNL1        0.1701
     30 C           5.4760   -3.2068   19.2216 C.3     1  UNL1        0.4118
     31 F           4.6364   -4.1975   19.9724 F       1  UNL1       -0.1685
     32 F           5.0799   -3.8523   17.9269 F       1  UNL1       -0.1685
     33 F           5.8721   -2.5614   20.5164 F       1  UNL1       -0.1685
     34 N          -3.4849    4.6324   20.0839 N.am    1  UNL1       -0.2641
     35 C          -4.6438    3.8947   20.6861 C.2     1  UNL1        0.2299
     36 O          -4.3999    2.7006   21.5606 O.2     1  UNL1       -0.2746
     37 H          -3.6449    5.4161   19.5099 H       1  UNL1        0.1567
     38 C          -6.0465    4.3511   20.4139 C.3     1  UNL1        0.1122
     39 C          -6.4901    4.6118   19.0048 C.3     1  UNL1        0.0971
     40 C          -6.5650    6.0806   19.3003 C.3     1  UNL1        0.0298
     41 C          -6.4152    3.1430   18.7095 C.3     1  UNL1        0.0298
     42 O          -6.9338    4.8726   17.5959 O.3     1  UNL1       -0.3862
     43 H          -7.0751    5.8242   17.4722 H       1  UNL1        0.2102
@<TRIPOS>BOND
     1    29    28    1
     2    29    26    1
     3    26    23    1
     4    23    24    2
     5    23    25    2
     6    23    15    1
     7    15    16   ar
     8    16    17   ar
     9    17    18   ar
    10    18     1    1
    11     1     2   ar
    12     2     3   ar
    13     3    34    1
    14    34    35   am
    15    35    36    2
    16    35    38    1
    17    38    39    1
    18    39    40    1
    19    39    41    1
    20    39    42    1
    21     3     4   ar
    22     4     5   ar
    23     5     6    1
    24     6     7    2
    25     6     8   am
    26     8     9    1
    27     9    10    1
    28    10    11    1
    29    11    12    1
    30    11    13    1
    31    13    14    1
    32    18    19   ar
    33    19    20    1
    34    19    21   ar
    35    21    22    1
    36    29    30    1
    37    30    31    1
    38    30    32    1
    39    30    33    1
    40    21    15   ar
    41     5     1   ar
    42    14     8    1
    43    26    27    1
    44    34    37    1
    45    42    43    1
@<TRIPOS>MOLECULE
*****
 43 45 0 0 0
SMALL
GASTEIGER

@<TRIPOS>ATOM
      1 C           2.8723   -0.6523   19.8338 C.ar    1  UNL1        0.0550
      2 S           1.6431   -0.2506   20.5938 S.2     1  UNL1       -0.0512
      3 C           0.8567    0.6962   19.7364 C.ar    1  UNL1        0.1657
      4 N           1.5999    0.8798   18.4464 N.ar    1  UNL1       -0.2193
      5 C           2.8457    0.0463   18.5066 C.ar    1  UNL1        0.1426
      6 C           3.8826   -0.0683   17.4289 C.2     1  UNL1        0.2673
      7 O           3.7010   -1.0570   16.3154 O.2     1  UNL1       -0.2682
      8 N           5.1012    0.8055   17.4645 N.am    1  UNL1       -0.2747
      9 C           6.1382    0.6908   16.3868 C.3     1  UNL1        0.0966
     10 C           7.3568    1.5647   16.4225 C.3     1  UNL1        0.0568
     11 C           7.5386    2.5532   17.5359 C.3     1  UNL1        0.1644
     12 F           8.7572    3.4271   17.5716 F       1  UNL1       -0.2372
     13 C           6.5016    2.6680   18.6137 C.3     1  UNL1        0.0568
     14 C           5.2830    1.7941   18.5780 C.3     1  UNL1        0.0966
     15 C           6.0773   -3.4601   21.2810 C.ar    1  UNL1        0.1333
     16 C           5.0306   -3.9466   20.3230 C.ar    1  UNL1        0.0208
     17 C           3.9623   -3.0106   19.8406 C.ar    1  UNL1        0.0028
     18 C           3.9407   -1.5882   20.3162 C.ar    1  UNL1        0.0192
     19 C           4.9874   -1.1017   21.2741 C.ar    1  UNL1        0.0700
     20 CL          4.9658    0.3208   21.7497 Cl      1  UNL1       -0.0813
     21 C           6.0557   -2.0377   21.7565 C.ar    1  UNL1        0.0867
     22 CL          7.1024   -1.5511   22.7145 Cl      1  UNL1       -0.0800
     23 S           7.1456   -4.3960   21.7634 S.O2    1  UNL1        0.0613
     24 O           8.0110   -4.0071   20.6015 O.2     1  UNL1       -0.1530
     25 O           6.2803   -4.7849   22.9252 O.2     1  UNL1       -0.1530
     26 N           8.2140   -5.3319   22.2458 N.3     1  UNL1       -0.1723
     27 H           7.9807   -6.2566   21.8839 H       1  UNL1        0.1491
     28 C           9.0967   -4.3787   24.4957 C.3     1  UNL1        0.0278
     29 C           8.4624   -5.4924   23.7163 C.3     1  UNL1        0.1701
     30 C           8.0767   -6.7665   24.4075 C.3     1  UNL1        0.4118
     31 F           7.6909   -8.0407   25.0987 F       1  UNL1       -0.1685
     32 F           8.5339   -7.5522   23.2143 F       1  UNL1       -0.1685
     33 F           7.6194   -5.9808   25.6006 F       1  UNL1       -0.1685
     34 N          -0.4444    1.3455   20.1043 N.am    1  UNL1       -0.2641
     35 C          -0.4665    2.7730   20.5645 C.2     1  UNL1        0.2299
     36 O           0.8125    3.5512   20.6568 O.2     1  UNL1       -0.2746
     37 H          -1.2839    0.8348   20.0438 H       1  UNL1        0.1567
     38 C          -1.7677    3.4223   20.9325 C.3     1  UNL1        0.1122
     39 C          -2.8480    3.5735   19.9028 C.3     1  UNL1        0.0971
     40 C          -1.8425    4.1080   18.9264 C.3     1  UNL1        0.0298
     41 C          -3.8535    3.0390   20.8793 C.3     1  UNL1        0.0298
     42 O          -3.9283    3.7246   18.8732 O.3     1  UNL1       -0.3862
     43 H          -3.5482    4.0831   18.0559 H       1  UNL1        0.2102
@<TRIPOS>BOND
     1    29    28    1
     2    29    26    1
     3    26    23    1
     4    23    24    2
     5    23    25    2
     6    23    15    1
     7    15    16   ar
     8    16    17   ar
     9    17    18   ar
    10    18     1    1
    11     1     2   ar
    12     2     3   ar
    13     3    34    1
    14    34    35   am
    15    35    36    2
    16    35    38    1
    17    38    39    1
    18    39    40    1
    19    39    41    1
    20    39    42    1
    21     3     4   ar
    22     4     5   ar
    23     5     6    1
    24     6     7    2
    25     6     8   am
    26     8     9    1
    27     9    10    1
    28    10    11    1
    29    11    12    1
    30    11    13    1
    31    13    14    1
    32    18    19   ar
    33    19    20    1
    34    19    21   ar
    35    21    22    1
    36    29    30    1
    37    30    31    1
    38    30    32    1
    39    30    33    1
    40    21    15   ar
    41     5     1   ar
    42    14     8    1
    43    26    27    1
    44    34    37    1
    45    42    43    1
@<TRIPOS>MOLECULE
*****
 43 45 0 0 0
SMALL
GASTEIGER

@<TRIPOS>ATOM
      1 C          -0.2452    3.1352   22.7605 C.ar    1  UNL1        0.0550
      2 S          -1.5485    3.5622   22.1529 S.2     1  UNL1       -0.0512
      3 C          -2.1924    4.5478   23.0824 C.ar    1  UNL1        0.1657
      4 N          -1.2871    4.7300   24.2644 N.ar    1  UNL1       -0.2193
      5 C          -0.0837    3.8569   24.0655 C.ar    1  UNL1        0.1426
      6 C           1.0774    3.7283   25.0064 C.2     1  UNL1        0.2673
      7 O           2.2938    4.5857   24.8182 O.2     1  UNL1       -0.2682
      8 N           1.0222    2.7423   26.1353 N.am    1  UNL1       -0.2747
      9 C           2.1834    2.6136   27.0762 C.3     1  UNL1        0.0966
     10 C           2.1281    1.6276   28.2052 C.3     1  UNL1        0.0568
     11 C           0.9118    0.7702   28.3934 C.3     1  UNL1        0.1644
     12 F           0.8566   -0.2158   29.5224 F       1  UNL1       -0.2372
     13 C          -0.2493    0.8988   27.4526 C.3     1  UNL1        0.0568
     14 C          -0.1941    1.8848   26.3235 C.3     1  UNL1        0.0966
     15 C           2.6685    0.2038   20.9808 C.ar    1  UNL1        0.1333
     16 C           2.0406   -0.0781   22.3135 C.ar    1  UNL1        0.0208
     17 C           1.0694    0.8991   22.9068 C.ar    1  UNL1        0.0028
     18 C           0.7260    2.1581   22.1672 C.ar    1  UNL1        0.0192
     19 C           1.3539    2.4400   20.8345 C.ar    1  UNL1        0.0700
     20 CL          1.0105    3.6990   20.0949 Cl      1  UNL1       -0.0813
     21 C           2.3251    1.4628   20.2412 C.ar    1  UNL1        0.0867
     22 CL          2.9530    1.7448   18.9084 Cl      1  UNL1       -0.0800
     23 S           3.6397   -0.7733   20.3875 S.O2    1  UNL1        0.0613
     24 O           2.5047   -1.5050   19.7344 O.2     1  UNL1       -0.1530
     25 O           4.7747   -0.0417   21.0406 O.2     1  UNL1       -0.1530
     26 N           4.6110   -1.7504   19.7943 N.3     1  UNL1       -0.1723
     27 H           4.4483   -1.7527   18.7873 H       1  UNL1        0.1491
     28 C           4.5520   -3.5151   21.7002 C.3     1  UNL1        0.0278
     29 C           4.5989   -3.1832   20.2381 C.3     1  UNL1        0.1701
     30 C           4.6337   -4.2841   19.2199 C.3     1  UNL1        0.4118
     31 F           4.6686   -5.3850   18.2016 F       1  UNL1       -0.1685
     32 F           3.6786   -5.0856   20.0537 F       1  UNL1       -0.1685
     33 F           5.5889   -3.4826   18.3860 F       1  UNL1       -0.1685
     34 N          -3.5103    5.2312   22.8675 N.am    1  UNL1       -0.2641
     35 C          -4.6855    4.8830   23.7322 C.2     1  UNL1        0.2299
     36 O          -4.5427    3.8514   24.8118 O.2     1  UNL1       -0.2746
     37 H          -3.6040    5.9082   22.1589 H       1  UNL1        0.1567
     38 C          -6.0033    5.5664   23.5173 C.3     1  UNL1        0.1122
     39 C          -7.2683    4.7611   23.4791 C.3     1  UNL1        0.0971
     40 C          -6.7997    4.0846   22.2249 C.3     1  UNL1        0.0298
     41 C          -7.7369    5.4376   24.7332 C.3     1  UNL1        0.0298
     42 O          -8.5333    3.9558   23.4409 O.3     1  UNL1       -0.3862
     43 H          -8.5203    3.3698   22.6680 H       1  UNL1        0.2102
@<TRIPOS>BOND
     1    29    28    1
     2    29    26    1
     3    26    23    1
     4    23    24    2
     5    23    25    2
     6    23    15    1
     7    15    16   ar
     8    16    17   ar
     9    17    18   ar
    10    18     1    1
    11     1     2   ar
    12     2     3   ar
    13     3    34    1
    14    34    35   am
    15    35    36    2
    16    35    38    1
    17    38    39    1
    18    39    40    1
    19    39    41    1
    20    39    42    1
    21     3     4   ar
    22     4     5   ar
    23     5     6    1
    24     6     7    2
    25     6     8   am
    26     8     9    1
    27     9    10    1
    28    10    11    1
    29    11    12    1
    30    11    13    1
    31    13    14    1
    32    18    19   ar
    33    19    20    1
    34    19    21   ar
    35    21    22    1
    36    29    30    1
    37    30    31    1
    38    30    32    1
    39    30    33    1
    40    21    15   ar
    41     5     1   ar
    42    14     8    1
    43    26    27    1
    44    34    37    1
    45    42    43    1
@<TRIPOS>MOLECULE
*****
 43 45 0 0 0
SMALL
GASTEIGER

@<TRIPOS>ATOM
      1 C           2.3975    0.5180   21.9771 C.ar    1  UNL1        0.0550
      2 S           1.0233    1.0468   22.2635 S.2     1  UNL1       -0.0512
      3 C           0.4469    1.5605   20.9775 C.ar    1  UNL1        0.1657
      4 N           1.4648    1.3492   19.8962 N.ar    1  UNL1       -0.2193
      5 C           2.6703    0.7049   20.5140 C.ar    1  UNL1        0.1426
      6 C           3.9279    0.3158   19.7949 C.2     1  UNL1        0.2673
      7 O           4.9570    1.3567   19.4668 O.2     1  UNL1       -0.2682
      8 N           4.1565   -1.1141   19.4038 N.am    1  UNL1       -0.2747
      9 C           5.4140   -1.5032   18.6847 C.3     1  UNL1        0.0966
     10 C           5.6426   -2.9332   18.2936 C.3     1  UNL1        0.0568
     11 C           4.6136   -3.9741   18.6217 C.3     1  UNL1        0.1644
     12 F           4.8421   -5.4041   18.2306 F       1  UNL1       -0.2372
     13 C           3.3560   -3.5851   19.3408 C.3     1  UNL1        0.0568
     14 C           3.1274   -2.1551   19.7318 C.3     1  UNL1        0.0966
     15 C           5.2079   -1.3084   24.9797 C.ar    1  UNL1        0.1333
     16 C           4.4338   -2.1893   24.0444 C.ar    1  UNL1        0.0208
     17 C           3.4970   -1.5805   23.0436 C.ar    1  UNL1        0.0028
     18 C           3.3343   -0.0908   22.9779 C.ar    1  UNL1        0.0192
     19 C           4.1084    0.7901   23.9132 C.ar    1  UNL1        0.0700
     20 CL          3.9458    2.2799   23.8476 Cl      1  UNL1       -0.0813
     21 C           5.0453    0.1813   24.9141 C.ar    1  UNL1        0.0867
     22 CL          5.8194    1.0623   25.8493 Cl      1  UNL1       -0.0800
     23 S           6.1447   -1.9172   25.9805 S.O2    1  UNL1        0.0613
     24 O           7.2575   -1.8556   24.9765 O.2     1  UNL1       -0.1530
     25 O           5.0320   -1.9788   26.9846 O.2     1  UNL1       -0.1530
     26 N           7.0816   -2.5260   26.9814 N.3     1  UNL1       -0.1723
     27 H           8.0228   -2.4290   26.6007 H       1  UNL1        0.1491
     28 C           6.9867   -5.0421   26.3408 C.3     1  UNL1        0.0278
     29 C           6.9220   -3.9630   27.3807 C.3     1  UNL1        0.1701
     30 C           6.6976   -4.3210   28.8200 C.3     1  UNL1        0.4118
     31 F           6.4733   -4.6790   30.2593 F       1  UNL1       -0.1685
     32 F           5.8064   -5.4520   28.3998 F       1  UNL1       -0.1685
     33 F           7.5889   -3.1900   29.2402 F       1  UNL1       -0.1685
     34 N          -0.9093    2.1773   20.8034 N.am    1  UNL1       -0.2641
     35 C          -1.1313    3.6157   21.1664 C.2     1  UNL1        0.2299
     36 O           0.0030    4.4373   21.7035 O.2     1  UNL1       -0.2746
     37 H          -1.6537    1.6380   20.4509 H       1  UNL1        0.1567
     38 C          -2.4875    4.2324   20.9923 C.3     1  UNL1        0.1122
     39 C          -3.6975    3.5581   21.5680 C.3     1  UNL1        0.0971
     40 C          -4.2429    3.3563   20.1853 C.3     1  UNL1        0.0298
     41 C          -3.1520    3.7599   22.9507 C.3     1  UNL1        0.0298
     42 O          -4.9074    2.8839   22.1438 O.3     1  UNL1       -0.3862
     43 H          -5.5008    2.6155   21.4249 H       1  UNL1        0.2102
@<TRIPOS>BOND
     1    29    28    1
     2    29    26    1
     3    26    23    1
     4    23    24    2
     5    23    25    2
     6    23    15    1
     7    15    16   ar
     8    16    17   ar
     9    17    18   ar
    10    18     1    1
    11     1     2   ar
    12     2     3   ar
    13     3    34    1
    14    34    35   am
    15    35    36    2
    16    35    38    1
    17    38    39    1
    18    39    40    1
    19    39    41    1
    20    39    42    1
    21     3     4   ar
    22     4     5   ar
    23     5     6    1
    24     6     7    2
    25     6     8   am
    26     8     9    1
    27     9    10    1
    28    10    11    1
    29    11    12    1
    30    11    13    1
    31    13    14    1
    32    18    19   ar
    33    19    20    1
    34    19    21   ar
    35    21    22    1
    36    29    30    1
    37    30    31    1
    38    30    32    1
    39    30    33    1
    40    21    15   ar
    41     5     1   ar
    42    14     8    1
    43    26    27    1
    44    34    37    1
    45    42    43    1
@<TRIPOS>MOLECULE
*****
 43 45 0 0 0
SMALL
GASTEIGER

@<TRIPOS>ATOM
      1 C           5.4146   -0.3303   26.1469 C.ar    1  UNL1        0.0550
      2 S           6.4034   -1.0374   27.0257 S.2     1  UNL1       -0.0512
      3 C           6.0185   -0.7849   28.4533 C.ar    1  UNL1        0.1657
      4 N           4.7917    0.0782   28.4569 N.ar    1  UNL1       -0.2193
      5 C           4.4185    0.3591   27.0314 C.ar    1  UNL1        0.1426
      6 C           3.2536    1.1846   26.5713 C.2     1  UNL1        0.2673
      7 O           3.4409    2.2111   25.4936 O.2     1  UNL1       -0.2682
      8 N           1.9016    0.9838   27.1889 N.am    1  UNL1       -0.2747
      9 C           0.7367    1.8093   26.7288 C.3     1  UNL1        0.0966
     10 C          -0.6154    1.6084   27.3464 C.3     1  UNL1        0.0568
     11 C          -0.8028    0.5820   28.4240 C.3     1  UNL1        0.1644
     12 F          -2.1549    0.3811   29.0416 F       1  UNL1       -0.2372
     13 C           0.3621   -0.2436   28.8842 C.3     1  UNL1        0.0568
     14 C           1.7142   -0.0427   28.2666 C.3     1  UNL1        0.0966
     15 C           5.4332   -0.2854   21.6472 C.ar    1  UNL1        0.1333
     16 C           4.7400   -1.3933   22.3833 C.ar    1  UNL1        0.0208
     17 C           4.7338   -1.4083   23.8832 C.ar    1  UNL1        0.0028
     18 C           5.4208   -0.3154   24.6470 C.ar    1  UNL1        0.0192
     19 C           6.1140    0.7926   23.9109 C.ar    1  UNL1        0.0700
     20 CL          6.8011    1.8856   24.6747 Cl      1  UNL1       -0.0813
     21 C           6.1202    0.8075   22.4110 C.ar    1  UNL1        0.0867
     22 CL          6.8135    1.9156   21.6749 Cl      1  UNL1       -0.0800
     23 S           5.4394   -0.2704   20.1473 S.O2    1  UNL1        0.0613
     24 O           6.8082   -0.8840   20.1468 O.2     1  UNL1       -0.1530
     25 O           4.0706    0.3432   20.1477 O.2     1  UNL1       -0.1530
     26 N           5.4456   -0.2554   18.6474 N.3     1  UNL1       -0.1723
     27 H           5.0849    0.6545   18.3605 H       1  UNL1        0.1491
     28 C           3.7873   -0.8732   16.7451 C.3     1  UNL1        0.0278
     29 C           4.6711   -1.2884   17.8838 C.3     1  UNL1        0.1701
     30 C           4.7805   -2.7367   18.2588 C.3     1  UNL1        0.4118
     31 F           4.8898   -4.1849   18.6339 F       1  UNL1       -0.1685
     32 F           3.4022   -2.6880   18.8487 F       1  UNL1       -0.1685
     33 F           6.1587   -2.7854   17.6689 F       1  UNL1       -0.1685
     34 N           6.7346   -1.3044   29.6646 N.am    1  UNL1       -0.2641
     35 C           6.9006   -2.7821   29.8615 C.2     1  UNL1        0.2299
     36 O           6.3505   -3.7404   28.8470 O.2     1  UNL1       -0.2746
     37 H           7.0956   -0.6755   30.3305 H       1  UNL1        0.1567
     38 C           7.6167   -3.3016   31.0728 C.3     1  UNL1        0.1122
     39 C           7.0064   -4.4011   31.8908 C.3     1  UNL1        0.0971
     40 C           6.0390   -3.4213   32.4860 C.3     1  UNL1        0.0298
     41 C           7.9739   -5.3808   31.2955 C.3     1  UNL1        0.0298
     42 O           6.3963   -5.5005   32.7087 O.3     1  UNL1       -0.3862
     43 H           5.6749   -5.1402   33.2478 H       1  UNL1        0.2102
@<TRIPOS>BOND
     1    29    28    1
     2    29    26    1
     3    26    23    1
     4    23    24    2
     5    23    25    2
     6    23    15    1
     7    15    16   ar
     8    16    17   ar
     9    17    18   ar
    10    18     1    1
    11     1     2   ar
    12     2     3   ar
    13     3    34    1
    14    34    35   am
    15    35    36    2
    16    35    38    1
    17    38    39    1
    18    39    40    1
    19    39    41    1
    20    39    42    1
    21     3     4   ar
    22     4     5   ar
    23     5     6    1
    24     6     7    2
    25     6     8   am
    26     8     9    1
    27     9    10    1
    28    10    11    1
    29    11    12    1
    30    11    13    1
    31    13    14    1
    32    18    19   ar
    33    19    20    1
    34    19    21   ar
    35    21    22    1
    36    29    30    1
    37    30    31    1
    38    30    32    1
    39    30    33    1
    40    21    15   ar
    41     5     1   ar
    42    14     8    1
    43    26    27    1
    44    34    37    1
    45    42    43    1
@<TRIPOS>MOLECULE
*****
 43 45 0 0 0
SMALL
GASTEIGER

@<TRIPOS>ATOM
      1 C           4.3754   -0.4602   26.1256 C.ar    1  UNL1        0.0550
      2 S           3.7422   -0.5177   24.7671 S.2     1  UNL1       -0.0512
      3 C           4.7709   -1.0184   23.7969 C.ar    1  UNL1        0.1657
      4 N           6.0399   -1.2703   24.5559 N.ar    1  UNL1       -0.2193
      5 C           5.7955   -0.9253   25.9951 C.ar    1  UNL1        0.1426
      6 C           6.7957   -1.0275   27.1083 C.2     1  UNL1        0.2673
      7 O           7.6321    0.1620   27.4767 O.2     1  UNL1       -0.2682
      8 N           6.9595   -2.3190   27.8532 N.am    1  UNL1       -0.2747
      9 C           7.9596   -2.4212   28.9665 C.3     1  UNL1        0.0966
     10 C           8.1234   -3.7128   29.7114 C.3     1  UNL1        0.0568
     11 C           7.2870   -4.9023   29.3431 C.3     1  UNL1        0.1644
     12 F           7.4508   -6.1939   30.0880 F       1  UNL1       -0.2372
     13 C           6.2868   -4.8002   28.2299 C.3     1  UNL1        0.0568
     14 C           6.1231   -3.5086   27.4850 C.3     1  UNL1        0.0966
     15 C           2.3676    0.8736   29.9255 C.ar    1  UNL1        0.1333
     16 C           2.3408   -0.5733   29.5311 C.ar    1  UNL1        0.0208
     17 C           3.0101   -1.0179   28.2645 C.ar    1  UNL1        0.0028
     18 C           3.7061   -0.0156   27.3922 C.ar    1  UNL1        0.0192
     19 C           3.7329    1.4314   27.7867 C.ar    1  UNL1        0.0700
     20 CL          4.4289    2.4338   26.9144 Cl      1  UNL1       -0.0813
     21 C           3.0636    1.8760   29.0533 C.ar    1  UNL1        0.0867
     22 CL          3.0903    3.3230   29.4477 Cl      1  UNL1       -0.0800
     23 S           1.6983    1.3182   31.1922 S.O2    1  UNL1        0.0613
     24 O           0.3945    1.4398   30.4606 O.2     1  UNL1       -0.1530
     25 O           3.0021    1.1966   31.9238 O.2     1  UNL1       -0.1530
     26 N           1.0290    1.7628   32.4588 N.3     1  UNL1       -0.1723
     27 H           0.0265    1.7805   32.2716 H       1  UNL1        0.1491
     28 C           2.0172    3.1464   34.4233 C.3     1  UNL1        0.0278
     29 C           1.3794    3.0885   33.0668 C.3     1  UNL1        0.1701
     30 C           1.0921    4.3563   32.3185 C.3     1  UNL1        0.4118
     31 F           0.8048    5.6241   31.5701 F       1  UNL1       -0.1685
     32 F          -0.3655    4.0040   32.2813 F       1  UNL1       -0.1685
     33 F           2.5497    4.7086   32.3557 F       1  UNL1       -0.1685
     34 N           4.5664   -1.2300   22.3261 N.am    1  UNL1       -0.2641
     35 C           4.3429   -2.6135   21.7914 C.2     1  UNL1        0.2299
     36 O           4.3240   -3.7854   22.7275 O.2     1  UNL1       -0.2746
     37 H           4.5788   -0.4609   21.7117 H       1  UNL1        0.1567
     38 C           4.1384   -2.8252   20.3205 C.3     1  UNL1        0.1122
     39 C           4.6239   -4.0865   19.6697 C.3     1  UNL1        0.0971
     40 C           3.2105   -4.4534   19.3266 C.3     1  UNL1        0.0298
     41 C           6.0373   -3.7195   20.0129 C.3     1  UNL1        0.0298
     42 O           5.1094   -5.3478   19.0189 O.3     1  UNL1       -0.3862
     43 H           4.3523   -5.8434   18.6694 H       1  UNL1        0.2102
@<TRIPOS>BOND
     1    29    28    1
     2    29    26    1
     3    26    23    1
     4    23    24    2
     5    23    25    2
     6    23    15    1
     7    15    16   ar
     8    16    17   ar
     9    17    18   ar
    10    18     1    1
    11     1     2   ar
    12     2     3   ar
    13     3    34    1
    14    34    35   am
    15    35    36    2
    16    35    38    1
    17    38    39    1
    18    39    40    1
    19    39    41    1
    20    39    42    1
    21     3     4   ar
    22     4     5   ar
    23     5     6    1
    24     6     7    2
    25     6     8   am
    26     8     9    1
    27     9    10    1
    28    10    11    1
    29    11    12    1
    30    11    13    1
    31    13    14    1
    32    18    19   ar
    33    19    20    1
    34    19    21   ar
    35    21    22    1
    36    29    30    1
    37    30    31    1
    38    30    32    1
    39    30    33    1
    40    21    15   ar
    41     5     1   ar
    42    14     8    1
    43    26    27    1
    44    34    37    1
    45    42    43    1
@<TRIPOS>MOLECULE
*****
 43 45 0 0 0
SMALL
GASTEIGER

@<TRIPOS>ATOM
      1 C           6.5565   -1.4394   30.9079 C.ar    1  UNL1        0.0550
      2 S           7.3154   -2.6906   30.5781 S.2     1  UNL1       -0.0512
      3 C           7.5877   -2.6923   29.1030 C.ar    1  UNL1        0.1657
      4 N           6.9972   -1.4422   28.5212 N.ar    1  UNL1       -0.2193
      5 C           6.3599   -0.6679   29.6367 C.ar    1  UNL1        0.1426
      6 C           5.6505    0.6471   29.5041 C.2     1  UNL1        0.2673
      7 O           6.4399    1.9194   29.4140 O.2     1  UNL1       -0.2682
      8 N           4.1518    0.6899   29.4618 N.am    1  UNL1       -0.2747
      9 C           3.4424    2.0049   29.3292 C.3     1  UNL1        0.0966
     10 C           1.9436    2.0476   29.2869 C.3     1  UNL1        0.0568
     11 C           1.1541    0.7753   29.3770 C.3     1  UNL1        0.1644
     12 F          -0.3447    0.8180   29.3346 F       1  UNL1       -0.2372
     13 C           1.8635   -0.5397   29.5095 C.3     1  UNL1        0.0568
     14 C           3.3622   -0.5824   29.5519 C.3     1  UNL1        0.0966
     15 C           5.1219   -0.2155   34.9937 C.ar    1  UNL1        0.1333
     16 C           4.4416   -1.3358   34.2644 C.ar    1  UNL1        0.0208
     17 C           4.9198   -1.7438   32.9025 C.ar    1  UNL1        0.0028
     18 C           6.0783   -1.0314   32.2699 C.ar    1  UNL1        0.0192
     19 C           6.7587    0.0889   32.9991 C.ar    1  UNL1        0.0700
     20 CL          7.9173    0.8014   32.3665 Cl      1  UNL1       -0.0813
     21 C           6.2805    0.4969   34.3611 C.ar    1  UNL1        0.0867
     22 CL          6.9609    1.6173   35.0904 Cl      1  UNL1       -0.0800
     23 S           4.6437    0.1925   36.3557 S.O2    1  UNL1        0.0613
     24 O           3.4927    0.9248   35.7321 O.2     1  UNL1       -0.1530
     25 O           5.7948   -0.5398   36.9792 O.2     1  UNL1       -0.1530
     26 N           4.1655    0.6005   37.7176 N.3     1  UNL1       -0.1723
     27 H           3.3084    0.0777   37.8976 H       1  UNL1        0.1491
     28 C           4.9200    3.0852   37.8015 C.3     1  UNL1        0.0278
     29 C           3.8626    2.0410   38.0057 C.3     1  UNL1        0.1701
     30 C           2.5023    2.4375   38.4981 C.3     1  UNL1        0.4118
     31 F           1.1420    2.8339   38.9905 F       1  UNL1       -0.1685
     32 F           2.8905    3.8835   38.4064 F       1  UNL1       -0.1685
     33 F           2.1141    0.9915   38.5898 F       1  UNL1       -0.1685
     34 N           8.3217   -3.7572   28.3432 N.am    1  UNL1       -0.2641
     35 C           7.6097   -5.0125   27.9342 C.2     1  UNL1        0.2299
     36 O           6.1638   -5.2030   28.2851 O.2     1  UNL1       -0.2746
     37 H           9.2707   -3.6322   28.1129 H       1  UNL1        0.1567
     38 C           8.3437   -6.0774   27.1744 C.3     1  UNL1        0.1122
     39 C           8.0039   -7.5224   27.3907 C.3     1  UNL1        0.0971
     40 C           7.2879   -7.5512   26.0729 C.3     1  UNL1        0.0298
     41 C           8.7199   -7.4934   28.7085 C.3     1  UNL1        0.0298
     42 O           7.6641   -8.9673   27.6071 O.3     1  UNL1       -0.3862
     43 H           7.1543   -9.2963   26.8503 H       1  UNL1        0.2102
@<TRIPOS>BOND
     1    29    28    1
     2    29    26    1
     3    26    23    1
     4    23    24    2
     5    23    25    2
     6    23    15    1
     7    15    16   ar
     8    16    17   ar
     9    17    18   ar
    10    18     1    1
    11     1     2   ar
    12     2     3   ar
    13     3    34    1
    14    34    35   am
    15    35    36    2
    16    35    38    1
    17    38    39    1
    18    39    40    1
    19    39    41    1
    20    39    42    1
    21     3     4   ar
    22     4     5   ar
    23     5     6    1
    24     6     7    2
    25     6     8   am
    26     8     9    1
    27     9    10    1
    28    10    11    1
    29    11    12    1
    30    11    13    1
    31    13    14    1
    32    18    19   ar
    33    19    20    1
    34    19    21   ar
    35    21    22    1
    36    29    30    1
    37    30    31    1
    38    30    32    1
    39    30    33    1
    40    21    15   ar
    41     5     1   ar
    42    14     8    1
    43    26    27    1
    44    34    37    1
    45    42    43    1
@<TRIPOS>MOLECULE
*****
 43 45 0 0 0
SMALL
GASTEIGER

@<TRIPOS>ATOM
      1 C           4.1655   -1.7160   21.6981 C.ar    1  UNL1        0.0550
      2 S           4.2734   -2.2687   23.0884 S.2     1  UNL1       -0.0512
      3 C           5.4301   -3.2232   23.1193 C.ar    1  UNL1        0.1657
      4 N           6.0371   -3.2604   21.7481 N.ar    1  UNL1       -0.2193
      5 C           5.2555   -2.3289   20.8698 C.ar    1  UNL1        0.1426
      6 C           5.5179   -2.0579   19.4180 C.2     1  UNL1        0.2673
      7 O           5.0915   -3.0536   18.3801 O.2     1  UNL1       -0.2682
      8 N           6.2065   -0.7914   19.0039 N.am    1  UNL1       -0.2747
      9 C           6.4689   -0.5205   17.5521 C.3     1  UNL1        0.0966
     10 C           7.1576    0.7461   17.1380 C.3     1  UNL1        0.0568
     11 C           7.5839    1.7418   18.1757 C.3     1  UNL1        0.1644
     12 F           8.2726    3.0084   17.7617 F       1  UNL1       -0.2372
     13 C           7.3216    1.4709   19.6276 C.3     1  UNL1        0.0568
     14 C           6.6329    0.2043   20.0416 C.3     1  UNL1        0.0966
     15 C           1.1084    1.2586   20.2641 C.ar    1  UNL1        0.1333
     16 C           1.0658   -0.1575   19.7712 C.ar    1  UNL1        0.0208
     17 C           2.0848   -1.1490   20.2492 C.ar    1  UNL1        0.0028
     18 C           3.1464   -0.7245   21.2201 C.ar    1  UNL1        0.0192
     19 C           3.1891    0.6916   21.7130 C.ar    1  UNL1        0.0700
     20 CL          4.2508    1.1162   22.6839 Cl      1  UNL1       -0.0813
     21 C           2.1700    1.6831   21.2350 C.ar    1  UNL1        0.0867
     22 CL          2.2127    3.0992   21.7279 Cl      1  UNL1       -0.0800
     23 S           0.0894    2.2501   19.7861 S.O2    1  UNL1        0.0613
     24 O           1.0494    2.7321   18.7392 O.2     1  UNL1       -0.1530
     25 O          -0.8707    1.7681   20.8330 O.2     1  UNL1       -0.1530
     26 N          -0.9297    3.2416   19.3081 N.3     1  UNL1       -0.1723
     27 H          -0.4146    4.0045   18.8686 H       1  UNL1        0.1491
     28 C          -1.3855    4.8809   21.2715 C.3     1  UNL1        0.0278
     29 C          -1.8821    3.8675   20.2833 C.3     1  UNL1        0.1701
     30 C          -3.3311    3.4801   20.2704 C.3     1  UNL1        0.4118
     31 F          -4.7802    3.0927   20.2574 F       1  UNL1       -0.1685
     32 F          -3.3263    3.4120   21.7688 F       1  UNL1       -0.1685
     33 F          -3.3360    3.5482   18.7719 F       1  UNL1       -0.1685
     34 N           5.8977   -4.0034   24.3120 N.am    1  UNL1       -0.2641
     35 C           7.1209   -3.5658   25.0619 C.2     1  UNL1        0.2299
     36 O           7.8764   -2.3480   24.6191 O.2     1  UNL1       -0.2746
     37 H           5.4018   -4.8028   24.6026 H       1  UNL1        0.1567
     38 C           7.5885   -4.3461   26.2546 C.3     1  UNL1        0.1122
     39 C           6.5924   -5.0506   27.1275 C.3     1  UNL1        0.0971
     40 C           6.9480   -6.3559   26.4797 C.3     1  UNL1        0.0298
     41 C           6.2368   -3.7451   27.7752 C.3     1  UNL1        0.0298
     42 O           5.5964   -5.7549   28.0003 O.3     1  UNL1       -0.3862
     43 H           5.5985   -6.7026   27.7935 H       1  UNL1        0.2102
@<TRIPOS>BOND
     1    29    28    1
     2    29    26    1
     3    26    23    1
     4    23    24    2
     5    23    25    2
     6    23    15    1
     7    15    16   ar
     8    16    17   ar
     9    17    18   ar
    10    18     1    1
    11     1     2   ar
    12     2     3   ar
    13     3    34    1
    14    34    35   am
    15    35    36    2
    16    35    38    1
    17    38    39    1
    18    39    40    1
    19    39    41    1
    20    39    42    1
    21     3     4   ar
    22     4     5   ar
    23     5     6    1
    24     6     7    2
    25     6     8   am
    26     8     9    1
    27     9    10    1
    28    10    11    1
    29    11    12    1
    30    11    13    1
    31    13    14    1
    32    18    19   ar
    33    19    20    1
    34    19    21   ar
    35    21    22    1
    36    29    30    1
    37    30    31    1
    38    30    32    1
    39    30    33    1
    40    21    15   ar
    41     5     1   ar
    42    14     8    1
    43    26    27    1
    44    34    37    1
    45    42    43    1
