@<TRIPOS>MOLECULE
*****
 16 18 0 0 0
SMALL
GASTEIGER

@<TRIPOS>ATOM
      1 O          -7.7713  -15.8723   22.3708 O.3     1  UNL1       -0.4724
      2 CL         -8.3821  -15.8747   27.5310 Cl      1  UNL1       -0.0805
      3 C          -7.5117  -15.6736   26.3260 C.ar    1  UNL1        0.0798
      4 C          -6.0764  -15.2726   26.4961 C.ar    1  UNL1        0.1104
      5 N          -5.2060  -15.0715   25.2911 N.ar    1  UNL1       -0.2383
      6 C          -5.7709  -15.2714   23.9160 C.ar    1  UNL1        0.1357
      7 C          -7.2063  -15.6724   23.7460 C.ar    1  UNL1        0.1585
      8 C          -8.0767  -15.8735   24.9509 C.ar    1  UNL1        0.0515
      9 C          -8.6170  -17.0753   22.0751 C.3     1  UNL1        0.2210
     10 C         -10.0652  -16.9058   21.7228 C.3     1  UNL1        0.0983
     11 N         -10.6013  -16.2059   20.5093 N.3     1  UNL1       -0.2955
     12 C         -12.0990  -16.2739   20.5587 C.3     1  UNL1        0.0686
     13 C         -12.4884  -17.0160   21.8028 C.3     1  UNL1        0.0172
     14 C         -12.5683  -17.7770   23.0930 C.3     1  UNL1        0.0029
     15 C         -11.2315  -17.4065   22.5223 C.3     1  UNL1        0.0195
     16 H         -10.2614  -16.6670   19.6653 H       1  UNL1        0.1233
@<TRIPOS>BOND
     1     2     3    1
     2     3     4   ar
     3     4     5   ar
     4     5     6   ar
     5     6     7   ar
     6     7     1    1
     7     1     9    1
     8    10     9    1
     9    10    11    1
    10    11    12    1
    11    13    12    1
    12    13    14    1
    13    15    14    1
    14     7     8   ar
    15     8     3   ar
    16    15    10    1
    17    15    13    1
    18    11    16    1
@<TRIPOS>MOLECULE
*****
 16 18 0 0 0
SMALL
GASTEIGER

@<TRIPOS>ATOM
      1 O          -8.6428  -17.0141   22.7176 O.3     1  UNL1       -0.4724
      2 CL        -13.5745  -17.9999   24.0241 Cl      1  UNL1       -0.0805
      3 C         -12.5347  -17.7476   22.9728 C.ar    1  UNL1        0.0798
      4 C         -12.9210  -17.7360   21.5235 C.ar    1  UNL1        0.1104
      5 N         -11.8812  -17.4837   20.4722 N.ar    1  UNL1       -0.2383
      6 C         -10.4551  -17.2431   20.8702 C.ar    1  UNL1        0.1357
      7 C         -10.0689  -17.2548   22.3195 C.ar    1  UNL1        0.1585
      8 C         -11.1087  -17.5070   23.3708 C.ar    1  UNL1        0.0515
      9 C          -8.2202  -15.6629   23.2132 C.3     1  UNL1        0.2210
     10 C          -7.4625  -15.5400   24.5019 C.3     1  UNL1        0.0983
     11 N          -6.0391  -15.0896   24.6482 N.3     1  UNL1       -0.2955
     12 C          -5.6919  -15.1171   26.1073 C.3     1  UNL1        0.0686
     13 C          -6.9007  -15.5844   26.8627 C.3     1  UNL1        0.0172
     14 C          -8.2406  -16.0670   27.3336 C.3     1  UNL1        0.0029
     15 C          -7.9949  -15.8457   25.8705 C.3     1  UNL1        0.0195
     16 H          -5.9370  -14.1417   24.2859 H       1  UNL1        0.1233
@<TRIPOS>BOND
     1     2     3    1
     2     3     4   ar
     3     4     5   ar
     4     5     6   ar
     5     6     7   ar
     6     7     1    1
     7     1     9    1
     8    10     9    1
     9    10    11    1
    10    11    12    1
    11    13    12    1
    12    13    14    1
    13    15    14    1
    14     7     8   ar
    15     8     3   ar
    16    15    10    1
    17    15    13    1
    18    11    16    1
@<TRIPOS>MOLECULE
*****
 16 18 0 0 0
SMALL
GASTEIGER

@<TRIPOS>ATOM
      1 O          -7.2904  -18.2149   20.5810 O.3     1  UNL1       -0.4724
      2 CL         -9.6957  -20.6606   24.4840 Cl      1  UNL1       -0.0805
      3 C          -9.4038  -19.4008   23.7238 C.ar    1  UNL1        0.0798
      4 C         -10.0226  -18.1043   24.1548 C.ar    1  UNL1        0.1104
      5 N          -9.7307  -16.8445   23.3946 N.ar    1  UNL1       -0.2383
      6 C          -8.8200  -16.8814   22.2034 C.ar    1  UNL1        0.1357
      7 C          -8.2012  -18.1780   21.7723 C.ar    1  UNL1        0.1585
      8 C          -8.4931  -19.4377   22.5325 C.ar    1  UNL1        0.0515
      9 C          -6.2996  -19.3307   20.4287 C.3     1  UNL1        0.2210
     10 C          -4.8517  -19.0206   20.1887 C.3     1  UNL1        0.0983
     11 N          -4.3058  -18.1516   19.0947 N.3     1  UNL1       -0.2955
     12 C          -2.8122  -18.1189   19.2305 C.3     1  UNL1        0.0686
     13 C          -2.4352  -18.9677   20.4085 C.3     1  UNL1        0.0172
     14 C          -2.3675  -19.8624   21.6106 C.3     1  UNL1        0.0029
     15 C          -3.6957  -19.5249   21.0007 C.3     1  UNL1        0.0195
     16 H          -4.6821  -17.2076   19.1821 H       1  UNL1        0.1233
@<TRIPOS>BOND
     1     2     3    1
     2     3     4   ar
     3     4     5   ar
     4     5     6   ar
     5     6     7   ar
     6     7     1    1
     7     1     9    1
     8    10     9    1
     9    10    11    1
    10    11    12    1
    11    13    12    1
    12    13    14    1
    13    15    14    1
    14     7     8   ar
    15     8     3   ar
    16    15    10    1
    17    15    13    1
    18    11    16    1
@<TRIPOS>MOLECULE
*****
 16 18 0 0 0
SMALL
GASTEIGER

@<TRIPOS>ATOM
      1 O          -8.8425  -19.0025   19.6758 O.3     1  UNL1       -0.4724
      2 CL         -3.9066  -20.5474   20.1765 Cl      1  UNL1       -0.0805
      3 C          -5.0797  -19.7619   20.6833 C.ar    1  UNL1        0.0798
      4 C          -4.9580  -18.9634   21.9472 C.ar    1  UNL1        0.1104
      5 N          -6.1311  -18.1780   22.4541 N.ar    1  UNL1       -0.2383
      6 C          -7.4259  -18.1910   21.6970 C.ar    1  UNL1        0.1357
      7 C          -7.5476  -18.9895   20.4330 C.ar    1  UNL1        0.1585
      8 C          -6.3745  -19.7749   19.9262 C.ar    1  UNL1        0.0515
      9 C         -10.0963  -19.4855   20.3425 C.3     1  UNL1        0.2210
     10 C         -11.0875  -18.4971   20.8819 C.3     1  UNL1        0.0983
     11 N         -11.6825  -17.3446   20.1284 N.3     1  UNL1       -0.2955
     12 C         -12.6205  -16.6230   21.0502 C.3     1  UNL1        0.0686
     13 C         -12.6051  -17.3296   22.3733 C.3     1  UNL1        0.0172
     14 C         -12.3839  -18.2262   23.5553 C.3     1  UNL1        0.0029
     15 C         -11.6577  -18.4878   22.2692 C.3     1  UNL1        0.0195
     16 H         -12.1930  -17.6892   19.3153 H       1  UNL1        0.1233
@<TRIPOS>BOND
     1     2     3    1
     2     3     4   ar
     3     4     5   ar
     4     5     6   ar
     5     6     7   ar
     6     7     1    1
     7     1     9    1
     8    10     9    1
     9    10    11    1
    10    11    12    1
    11    13    12    1
    12    13    14    1
    13    15    14    1
    14     7     8   ar
    15     8     3   ar
    16    15    10    1
    17    15    13    1
    18    11    16    1
@<TRIPOS>MOLECULE
*****
 16 18 0 0 0
SMALL
GASTEIGER

@<TRIPOS>ATOM
      1 O          -7.5793  -17.8502   21.3888 O.3     1  UNL1       -0.4724
      2 CL        -12.2282  -15.8494   22.5655 Cl      1  UNL1       -0.0805
      3 C         -11.3200  -17.0361   22.4348 C.ar    1  UNL1        0.0798
      4 C         -11.8281  -18.4089   22.7618 C.ar    1  UNL1        0.1104
      5 N         -10.9199  -19.5956   22.6311 N.ar    1  UNL1       -0.2383
      6 C          -9.5037  -19.4094   22.1735 C.ar    1  UNL1        0.1357
      7 C          -8.9956  -18.0365   21.8465 C.ar    1  UNL1        0.1585
      8 C          -9.9038  -16.8498   21.9772 C.ar    1  UNL1        0.0515
      9 C          -6.5378  -18.8717   21.7378 C.3     1  UNL1        0.2210
     10 C          -5.2366  -18.9012   20.9920 C.3     1  UNL1        0.0983
     11 N          -5.0217  -18.4550   19.5761 N.3     1  UNL1       -0.2955
     12 C          -3.5742  -18.6601   19.2402 C.3     1  UNL1        0.0686
     13 C          -2.8946  -19.2329   20.4486 C.3     1  UNL1        0.0172
     14 C          -2.5004  -19.7871   21.7856 C.3     1  UNL1        0.0029
     15 C          -3.9220  -19.3819   21.5312 C.3     1  UNL1        0.0195
     16 H          -5.2620  -17.4681   19.4839 H       1  UNL1        0.1233
@<TRIPOS>BOND
     1     2     3    1
     2     3     4   ar
     3     4     5   ar
     4     5     6   ar
     5     6     7   ar
     6     7     1    1
     7     1     9    1
     8    10     9    1
     9    10    11    1
    10    11    12    1
    11    13    12    1
    12    13    14    1
    13    15    14    1
    14     7     8   ar
    15     8     3   ar
    16    15    10    1
    17    15    13    1
    18    11    16    1
@<TRIPOS>MOLECULE
*****
 16 18 0 0 0
SMALL
GASTEIGER

@<TRIPOS>ATOM
      1 O          -6.0218  -19.5719   22.0559 O.3     1  UNL1       -0.4724
      2 CL         -2.0820  -18.4410   18.8623 Cl      1  UNL1       -0.0805
      3 C          -2.6823  -18.4364   20.2369 C.ar    1  UNL1        0.0798
      4 C          -1.9132  -17.8617   21.3894 C.ar    1  UNL1        0.1104
      5 N          -2.5136  -17.8571   22.7640 N.ar    1  UNL1       -0.2383
      6 C          -3.8831  -18.4271   22.9861 C.ar    1  UNL1        0.1357
      7 C          -4.6522  -19.0018   21.8337 C.ar    1  UNL1        0.1585
      8 C          -4.0519  -19.0064   20.4591 C.ar    1  UNL1        0.0515
      9 C          -7.2139  -18.6627   22.1041 C.3     1  UNL1        0.2210
     10 C          -8.4660  -19.0277   21.3631 C.3     1  UNL1        0.0983
     11 N          -8.6689  -18.9425   19.8793 N.3     1  UNL1       -0.2955
     12 C         -10.0634  -19.4041   19.5750 C.3     1  UNL1        0.0686
     13 C         -10.7222  -19.7745   20.8707 C.3     1  UNL1        0.0172
     14 C         -11.1063  -20.0609   22.2921 C.3     1  UNL1        0.0029
     15 C          -9.7350  -19.5419   21.9758 C.3     1  UNL1        0.0195
     16 H          -7.9944  -19.5411   19.4028 H       1  UNL1        0.1233
@<TRIPOS>BOND
     1     2     3    1
     2     3     4   ar
     3     4     5   ar
     4     5     6   ar
     5     6     7   ar
     6     7     1    1
     7     1     9    1
     8    10     9    1
     9    10    11    1
    10    11    12    1
    11    13    12    1
    12    13    14    1
    13    15    14    1
    14     7     8   ar
    15     8     3   ar
    16    15    10    1
    17    15    13    1
    18    11    16    1
@<TRIPOS>MOLECULE
*****
 16 18 0 0 0
SMALL
GASTEIGER

@<TRIPOS>ATOM
      1 O          -8.7806  -19.0460   22.7069 O.3     1  UNL1       -0.4724
      2 CL        -13.7500  -17.9680   23.7759 Cl      1  UNL1       -0.0805
      3 C         -12.4552  -17.6028   23.1125 C.ar    1  UNL1        0.0798
      4 C         -12.3502  -16.3335   22.3203 C.ar    1  UNL1        0.1104
      5 N         -11.0554  -15.9683   21.6569 N.ar    1  UNL1       -0.2383
      6 C          -9.8656  -16.8724   21.7857 C.ar    1  UNL1        0.1357
      7 C          -9.9705  -18.1418   22.5780 C.ar    1  UNL1        0.1585
      8 C         -11.2653  -18.5070   23.2414 C.ar    1  UNL1        0.0515
      9 C          -7.6126  -18.8853   21.7796 C.3     1  UNL1        0.2210
     10 C          -6.3009  -18.3825   22.3057 C.3     1  UNL1        0.0983
     11 N          -6.0880  -17.1122   23.0745 N.3     1  UNL1       -0.2955
     12 C          -4.6273  -17.0063   23.3993 C.3     1  UNL1        0.0686
     13 C          -3.9376  -18.2112   22.8312 C.3     1  UNL1        0.0172
     14 C          -3.5357  -19.4942   22.1661 C.3     1  UNL1        0.0029
     15 C          -4.9719  -19.0617   22.1553 C.3     1  UNL1        0.0195
     16 H          -6.6335  -17.1335   23.9361 H       1  UNL1        0.1233
@<TRIPOS>BOND
     1     2     3    1
     2     3     4   ar
     3     4     5   ar
     4     5     6   ar
     5     6     7   ar
     6     7     1    1
     7     1     9    1
     8    10     9    1
     9    10    11    1
    10    11    12    1
    11    13    12    1
    12    13    14    1
    13    15    14    1
    14     7     8   ar
    15     8     3   ar
    16    15    10    1
    17    15    13    1
    18    11    16    1
@<TRIPOS>MOLECULE
*****
 16 18 0 0 0
SMALL
GASTEIGER

@<TRIPOS>ATOM
      1 O          -7.5579  -18.2298   22.7220 O.3     1  UNL1       -0.4724
      2 CL         -2.5508  -19.2843   21.8180 Cl      1  UNL1       -0.0805
      3 C          -4.0013  -19.4990   21.5016 C.ar    1  UNL1        0.0798
      4 C          -4.3986  -20.4557   20.4168 C.ar    1  UNL1        0.1104
      5 N          -5.8490  -20.6704   20.1004 N.ar    1  UNL1       -0.2383
      6 C          -6.9021  -19.9285   20.8688 C.ar    1  UNL1        0.1357
      7 C          -6.5048  -18.9718   21.9536 C.ar    1  UNL1        0.1585
      8 C          -5.0544  -18.7571   22.2700 C.ar    1  UNL1        0.0515
      9 C          -8.9303  -18.8164   22.8717 C.3     1  UNL1        0.2210
     10 C         -10.0765  -18.2535   22.0846 C.3     1  UNL1        0.0983
     11 N         -10.0248  -17.7942   20.6575 N.3     1  UNL1       -0.2955
     12 C         -11.3920  -17.3079   20.2773 C.3     1  UNL1        0.0686
     13 C         -12.2885  -17.4666   21.4694 C.3     1  UNL1        0.0172
     14 C         -12.9272  -17.7389   22.7991 C.3     1  UNL1        0.0029
     15 C         -11.4755  -18.0510   22.5863 C.3     1  UNL1        0.0195
     16 H          -9.7531  -18.5702   20.0538 H       1  UNL1        0.1233
@<TRIPOS>BOND
     1     2     3    1
     2     3     4   ar
     3     4     5   ar
     4     5     6   ar
     5     6     7   ar
     6     7     1    1
     7     1     9    1
     8    10     9    1
     9    10    11    1
    10    11    12    1
    11    13    12    1
    12    13    14    1
    13    15    14    1
    14     7     8   ar
    15     8     3   ar
    16    15    10    1
    17    15    13    1
    18    11    16    1
@<TRIPOS>MOLECULE
*****
 16 18 0 0 0
SMALL
GASTEIGER

@<TRIPOS>ATOM
      1 O          -3.9640  -15.9338   22.9984 O.3     1  UNL1       -0.4724
      2 CL         -0.2735  -17.8736   19.8972 Cl      1  UNL1       -0.0805
      3 C          -1.4565  -18.0811   20.7958 C.ar    1  UNL1        0.0798
      4 C          -1.9772  -19.4660   21.0424 C.ar    1  UNL1        0.1104
      5 N          -3.1602  -19.6735   21.9410 N.ar    1  UNL1       -0.2383
      6 C          -3.8224  -18.4962   22.5930 C.ar    1  UNL1        0.1357
      7 C          -3.3017  -17.1113   22.3464 C.ar    1  UNL1        0.1585
      8 C          -2.1188  -16.9037   21.4478 C.ar    1  UNL1        0.0515
      9 C          -4.9497  -16.1475   24.1086 C.3     1  UNL1        0.2210
     10 C          -6.4184  -16.1995   23.8079 C.3     1  UNL1        0.0983
     11 N          -7.0400  -16.6737   22.5278 N.3     1  UNL1       -0.2955
     12 C          -8.5291  -16.5538   22.6633 C.3     1  UNL1        0.0686
     13 C          -8.8277  -16.0055   24.0272 C.3     1  UNL1        0.0172
     14 C          -8.8145  -15.4583   25.4238 C.3     1  UNL1        0.0029
     15 C          -7.5233  -15.7866   24.7346 C.3     1  UNL1        0.0195
     16 H          -6.7850  -17.6468   22.3588 H       1  UNL1        0.1233
@<TRIPOS>BOND
     1     2     3    1
     2     3     4   ar
     3     4     5   ar
     4     5     6   ar
     5     6     7   ar
     6     7     1    1
     7     1     9    1
     8    10     9    1
     9    10    11    1
    10    11    12    1
    11    13    12    1
    12    13    14    1
    13    15    14    1
    14     7     8   ar
    15     8     3   ar
    16    15    10    1
    17    15    13    1
    18    11    16    1
