@<TRIPOS>MOLECULE
*****
 42 47 0 0 0
SMALL
GASTEIGER

@<TRIPOS>ATOM
      1 N           3.1465    0.3244   31.4644 N.am    1  UNL1       -0.2222
      2 C           2.4770    0.4365   30.1266 C.2     1  UNL1        0.3219
      3 O           2.7758   -0.4006   28.9183 O.2     1  UNL1       -0.2512
      4 N           1.4564    1.5326   30.2095 N.am    1  UNL1       -0.1907
      5 C           1.4950    2.0980   31.5983 C.2     1  UNL1        0.2529
      6 O           0.6394    3.2141   32.1200 O.2     1  UNL1       -0.2724
      7 C           2.5396    1.3512   32.3739 C.3     1  UNL1        0.1391
      8 C           3.6095    0.5211   33.0189 C.3     1  UNL1        0.0449
      9 C           3.9817    0.7594   34.4522 C.3     1  UNL1        0.0746
     10 N           3.2840    1.8278   35.2407 N.3     1  UNL1       -0.2676
     11 C           2.2140    2.6579   34.5957 C.3     1  UNL1        0.0746
     12 C           1.8418    2.4197   33.1623 C.3     1  UNL1        0.0449
     13 C           6.7498   -1.2825   31.8928 C.ar    1  UNL1        0.2293
     14 C           5.6641   -0.3137   31.5286 C.ar    1  UNL1        0.0924
     15 C           4.2321   -0.6445   31.8285 C.ar    1  UNL1        0.1453
     16 N           3.8858   -1.9441   32.4926 N.ar    1  UNL1       -0.2084
     17 C           4.9714   -2.9130   32.8568 C.ar    1  UNL1        0.2027
     18 N           6.4035   -2.5821   32.5569 N.ar    1  UNL1       -0.1892
     19 C           9.2812   -1.8092   32.1462 C.3     1  UNL1        0.2542
     20 O           8.1818   -0.9518   31.5929 O.3     1  UNL1       -0.4560
     21 C           0.5554    1.9841   29.0985 C.ar    1  UNL1        0.0622
     22 C           0.6348    3.3948   28.5948 C.ar    1  UNL1        0.0154
     23 C          -0.2662    3.8463   27.4838 C.ar    1  UNL1        0.0013
     24 C          -1.2467    2.8872   26.8766 C.ar    1  UNL1        0.0006
     25 C          -1.3262    1.4764   27.3803 C.ar    1  UNL1        0.0013
     26 C          -0.4251    1.0250   28.4913 C.ar    1  UNL1        0.0154
     27 C          -2.1478    3.3387   25.7656 C.ar    1  UNL1        0.0070
     28 C          -3.5255    3.9102   25.9249 C.ar    1  UNL1        0.0355
     29 S          -4.0585    4.2227   24.5581 S.2     1  UNL1       -0.0853
     30 C          -3.0103    3.8443   23.5541 C.ar    1  UNL1        0.0434
     31 C          -1.8294    3.2980   24.3004 C.ar    1  UNL1        0.0081
     32 C          -3.1231    3.9872   22.0652 C.2     1  UNL1        0.0789
     33 O          -3.7798    5.2001   21.4757 O.co2   1  UNL1       -0.5441
     34 O          -2.5791    2.9172   21.1657 O.co2   1  UNL1       -0.5441
     35 C           3.6562    2.0661   36.6741 C.3     1  UNL1        0.1183
     36 C           2.6351    1.8744   37.7560 C.ar    1  UNL1        0.0712
     37 N           2.5013    0.5429   38.4337 N.ar    1  UNL1       -0.2471
     38 C           1.4801    0.3512   39.5156 C.ar    1  UNL1        0.0985
     39 C           0.5928    1.4910   39.9198 C.ar    1  UNL1        0.0203
     40 C           0.7266    2.8225   39.2422 C.ar    1  UNL1       -0.0015
     41 C           1.7477    3.0142   38.1603 C.ar    1  UNL1       -0.0069
     42 C           1.8815    4.3457   37.4826 C.3     1  UNL1        0.0323
@<TRIPOS>UNITY_ATOM_ATTR
33 1
charge -1
@<TRIPOS>BOND
     1    19    20    1
     2    20    13    1
     3    13    14   ar
     4    14    15   ar
     5    15     1    1
     6     1     2   am
     7     2     3    2
     8     2     4   am
     9     4    21    1
    10    21    22   ar
    11    22    23   ar
    12    23    24   ar
    13    24    27    1
    14    27    28   ar
    15    28    29   ar
    16    29    30   ar
    17    30    32    1
    18    32    33   ar
    19    32    34   ar
    20    30    31   ar
    21    24    25   ar
    22    25    26   ar
    23     4     5   am
    24     5     6    2
    25     5     7    1
    26     7     8    1
    27     8     9    1
    28     9    10    1
    29    10    35    1
    30    35    36    1
    31    36    37   ar
    32    37    38   ar
    33    38    39   ar
    34    39    40   ar
    35    40    41   ar
    36    41    42    1
    37    10    11    1
    38    11    12    1
    39    15    16   ar
    40    16    17   ar
    41    17    18   ar
    42    18    13   ar
    43     7     1    1
    44    41    36   ar
    45    26    21   ar
    46    12     7    1
    47    31    27   ar
@<TRIPOS>MOLECULE
*****
 42 47 0 0 0
SMALL
GASTEIGER

@<TRIPOS>ATOM
      1 N           2.8348    0.9881   31.4533 N.am    1  UNL1       -0.2222
      2 C           2.2470    0.9751   30.0732 C.2     1  UNL1        0.3219
      3 O           2.6293    0.0443   28.9608 O.2     1  UNL1       -0.2512
      4 N           1.2099    2.0564   30.0010 N.am    1  UNL1       -0.1907
      5 C           1.1567    2.7377   31.3363 C.2     1  UNL1        0.2529
      6 O           0.2573    3.8788   31.7088 O.2     1  UNL1       -0.2724
      7 C           2.1610    2.0774   32.2339 C.3     1  UNL1        0.1391
      8 C           3.1997    1.3234   33.0102 C.3     1  UNL1        0.0449
      9 C           3.4807    1.6884   34.4377 C.3     1  UNL1        0.0746
     10 N           2.7231    2.8073   35.0889 N.3     1  UNL1       -0.2676
     11 C           1.6844    3.5612   34.3126 C.3     1  UNL1        0.0746
     12 C           1.4034    3.1963   32.8851 C.3     1  UNL1        0.0449
     13 C           6.4244   -0.4600   32.3296 C.ar    1  UNL1        0.2293
     14 C           5.3512    0.4556   31.8198 C.ar    1  UNL1        0.0924
     15 C           3.9080    0.0725   31.9631 C.ar    1  UNL1        0.1453
     16 N           3.5381   -1.2262   32.6163 N.ar    1  UNL1       -0.2084
     17 C           4.6112   -2.1418   33.1261 C.ar    1  UNL1        0.2027
     18 N           6.0544   -1.7587   32.9828 N.ar    1  UNL1       -0.1892
     19 C           8.9116   -1.1397   32.0114 C.3     1  UNL1        0.2542
     20 O           7.8675   -0.0770   32.1864 O.3     1  UNL1       -0.4560
     21 C           0.3730    2.3968   28.8037 C.ar    1  UNL1        0.0622
     22 C           0.4010    3.7863   28.2395 C.ar    1  UNL1        0.0154
     23 C          -0.4360    4.1266   27.0422 C.ar    1  UNL1        0.0013
     24 C          -1.3010    3.0774   26.4090 C.ar    1  UNL1        0.0006
     25 C          -1.3290    1.6877   26.9732 C.ar    1  UNL1        0.0013
     26 C          -0.4920    1.3475   28.1706 C.ar    1  UNL1        0.0154
     27 C          -2.1380    3.4177   25.2116 C.ar    1  UNL1        0.0070
     28 C          -1.6269    3.6981   23.8295 C.ar    1  UNL1        0.0355
     29 S          -2.8060    3.9911   22.9498 S.2     1  UNL1       -0.0853
     30 C          -4.0458    3.8918   23.7883 C.ar    1  UNL1        0.0434
     31 C          -3.6330    3.5374   25.1861 C.ar    1  UNL1        0.0081
     32 C          -5.4517    4.1087   23.3125 C.2     1  UNL1        0.0789
     33 O          -6.5323    4.4486   24.2957 O.co2   1  UNL1       -0.5441
     34 O          -5.7771    3.9858   21.8534 O.co2   1  UNL1       -0.5441
     35 C           3.0041    3.1722   36.5165 C.3     1  UNL1        0.1183
     36 C           2.2476    2.5020   37.6248 C.ar    1  UNL1        0.0712
     37 N           0.9660    3.0990   38.1260 N.ar    1  UNL1       -0.2471
     38 C           0.2095    2.4287   39.2345 C.ar    1  UNL1        0.0985
     39 C           0.7346    1.1616   39.8416 C.ar    1  UNL1        0.0203
     40 C           2.0162    0.5647   39.3404 C.ar    1  UNL1       -0.0015
     41 C           2.7727    1.2349   38.2320 C.ar    1  UNL1       -0.0069
     42 C           4.0543    0.6379   37.7308 C.3     1  UNL1        0.0323
@<TRIPOS>UNITY_ATOM_ATTR
33 1
charge -1
@<TRIPOS>BOND
     1    19    20    1
     2    20    13    1
     3    13    14   ar
     4    14    15   ar
     5    15     1    1
     6     1     2   am
     7     2     3    2
     8     2     4   am
     9     4    21    1
    10    21    22   ar
    11    22    23   ar
    12    23    24   ar
    13    24    27    1
    14    27    28   ar
    15    28    29   ar
    16    29    30   ar
    17    30    32    1
    18    32    33   ar
    19    32    34   ar
    20    30    31   ar
    21    24    25   ar
    22    25    26   ar
    23     4     5   am
    24     5     6    2
    25     5     7    1
    26     7     8    1
    27     8     9    1
    28     9    10    1
    29    10    35    1
    30    35    36    1
    31    36    37   ar
    32    37    38   ar
    33    38    39   ar
    34    39    40   ar
    35    40    41   ar
    36    41    42    1
    37    10    11    1
    38    11    12    1
    39    15    16   ar
    40    16    17   ar
    41    17    18   ar
    42    18    13   ar
    43     7     1    1
    44    41    36   ar
    45    26    21   ar
    46    12     7    1
    47    31    27   ar
@<TRIPOS>MOLECULE
*****
 42 47 0 0 0
SMALL
GASTEIGER

@<TRIPOS>ATOM
      1 N           3.6377   -1.2333   21.5719 N.am    1  UNL1       -0.2222
      2 C           2.4283   -0.3459   21.5788 C.2     1  UNL1        0.3219
      3 O           1.5640   -0.0241   20.3959 O.2     1  UNL1       -0.2512
      4 N           2.2350    0.1632   22.9766 N.am    1  UNL1       -0.1907
      5 C           3.3249   -0.4095   23.8334 C.2     1  UNL1        0.2529
      6 O           3.5146   -0.1626   25.3007 O.2     1  UNL1       -0.2724
      7 C           4.1918   -1.2727   22.9653 C.3     1  UNL1        0.1391
      8 C           4.9636   -2.0974   21.9783 C.3     1  UNL1        0.0449
      9 C           6.1723   -2.8650   22.4251 C.3     1  UNL1        0.0746
     10 N           6.6093   -2.8079   23.8589 N.3     1  UNL1       -0.2676
     11 C           5.8375   -1.9832   24.8459 C.3     1  UNL1        0.0746
     12 C           4.6288   -1.2156   24.3991 C.3     1  UNL1        0.0449
     13 C           5.6966   -1.9722   18.2606 C.ar    1  UNL1        0.2293
     14 C           5.1393   -1.2508   19.4518 C.ar    1  UNL1        0.0924
     15 C           4.1951   -1.9547   20.3807 C.ar    1  UNL1        0.1453
     16 N           3.8082   -3.3801   20.1185 N.ar    1  UNL1       -0.2084
     17 C           4.3655   -4.1015   18.9274 C.ar    1  UNL1        0.2027
     18 N           5.3098   -3.3975   17.9984 N.ar    1  UNL1       -0.1892
     19 C           6.4811    0.2002   17.0711 C.3     1  UNL1        0.2542
     20 O           6.6408   -1.2683   17.3316 O.3     1  UNL1       -0.4560
     21 C           1.1436    1.0835   23.4366 C.ar    1  UNL1        0.0622
     22 C           0.5841    0.9498   24.8219 C.ar    1  UNL1        0.0154
     23 C          -0.5074    1.8701   25.2820 C.ar    1  UNL1        0.0013
     24 C          -1.0395    2.9241   24.3567 C.ar    1  UNL1        0.0006
     25 C          -0.4800    3.0578   22.9713 C.ar    1  UNL1        0.0013
     26 C           0.6115    2.1374   22.5114 C.ar    1  UNL1        0.0154
     27 C          -2.1310    3.8444   24.8168 C.ar    1  UNL1        0.0070
     28 C          -3.0719    4.6077   23.9323 C.ar    1  UNL1        0.0355
     29 S          -3.9957    5.3980   24.8109 S.2     1  UNL1       -0.0853
     30 C          -3.6257    5.1231   26.2384 C.ar    1  UNL1        0.0434
     31 C          -2.4734    4.1630   26.2420 C.ar    1  UNL1        0.0081
     32 C          -4.2914    5.7061   27.4496 C.2     1  UNL1        0.0789
     33 O          -5.7654    5.5213   27.6573 O.co2   1  UNL1       -0.5441
     34 O          -3.4831    6.4739   28.4531 O.co2   1  UNL1       -0.5441
     35 C           7.8181   -3.5756   24.3057 C.3     1  UNL1        0.1183
     36 C           7.6632   -4.9572   24.8688 C.ar    1  UNL1        0.0712
     37 N           6.9790   -5.1568   26.1887 N.ar    1  UNL1       -0.2471
     38 C           6.8242   -6.5384   26.7519 C.ar    1  UNL1        0.0985
     39 C           7.3535   -7.7204   25.9952 C.ar    1  UNL1        0.0203
     40 C           8.0376   -7.5209   24.6753 C.ar    1  UNL1       -0.0015
     41 C           8.1925   -6.1393   24.1121 C.ar    1  UNL1       -0.0069
     42 C           8.8767   -5.9397   22.7922 C.3     1  UNL1        0.0323
@<TRIPOS>UNITY_ATOM_ATTR
33 1
charge -1
@<TRIPOS>BOND
     1    19    20    1
     2    20    13    1
     3    13    14   ar
     4    14    15   ar
     5    15     1    1
     6     1     2   am
     7     2     3    2
     8     2     4   am
     9     4    21    1
    10    21    22   ar
    11    22    23   ar
    12    23    24   ar
    13    24    27    1
    14    27    28   ar
    15    28    29   ar
    16    29    30   ar
    17    30    32    1
    18    32    33   ar
    19    32    34   ar
    20    30    31   ar
    21    24    25   ar
    22    25    26   ar
    23     4     5   am
    24     5     6    2
    25     5     7    1
    26     7     8    1
    27     8     9    1
    28     9    10    1
    29    10    35    1
    30    35    36    1
    31    36    37   ar
    32    37    38   ar
    33    38    39   ar
    34    39    40   ar
    35    40    41   ar
    36    41    42    1
    37    10    11    1
    38    11    12    1
    39    15    16   ar
    40    16    17   ar
    41    17    18   ar
    42    18    13   ar
    43     7     1    1
    44    41    36   ar
    45    26    21   ar
    46    12     7    1
    47    31    27   ar
@<TRIPOS>MOLECULE
*****
 42 47 0 0 0
SMALL
GASTEIGER

@<TRIPOS>ATOM
      1 N           3.7594   -0.6348   23.7520 N.am    1  UNL1       -0.2222
      2 C           2.5839    0.2956   23.6987 C.2     1  UNL1        0.3219
      3 O           1.8589    0.7302   22.4595 O.2     1  UNL1       -0.2512
      4 N           2.2608    0.7151   25.1022 N.am    1  UNL1       -0.1907
      5 C           3.2365    0.0440   26.0228 C.2     1  UNL1        0.2529
      6 O           3.2787    0.1828   27.5157 O.2     1  UNL1       -0.2724
      7 C           4.1627   -0.7902   25.1884 C.3     1  UNL1        0.1391
      8 C           5.0080   -1.5745   24.2290 C.3     1  UNL1        0.0449
      9 C           6.1389   -2.4164   24.7410 C.3     1  UNL1        0.0746
     10 N           6.4245   -2.4740   26.2124 N.3     1  UNL1       -0.2676
     11 C           5.5793   -1.6898   27.1718 C.3     1  UNL1        0.0746
     12 C           4.4484   -0.8479   26.6598 C.3     1  UNL1        0.0449
     13 C           4.6357   -3.3206   20.9649 C.ar    1  UNL1        0.2293
     14 C           3.9789   -2.6615   22.1414 C.ar    1  UNL1        0.0924
     15 C           4.4161   -1.2939   22.5755 C.ar    1  UNL1        0.1453
     16 N           5.5101   -0.5854   21.8330 N.ar    1  UNL1       -0.2084
     17 C           6.1669   -1.2444   20.6566 C.ar    1  UNL1        0.2027
     18 N           5.7297   -2.6121   20.2224 N.ar    1  UNL1       -0.1892
     19 C           3.6521   -4.8976   19.1496 C.3     1  UNL1        0.2542
     20 O           4.1985   -4.6882   20.5307 O.3     1  UNL1       -0.4560
     21 C           1.1560    1.6427   25.5128 C.ar    1  UNL1        0.0622
     22 C           1.0860    3.0265   24.9382 C.ar    1  UNL1        0.0154
     23 C          -0.0189    3.9542   25.3489 C.ar    1  UNL1        0.0013
     24 C          -1.0538    3.4981   26.3342 C.ar    1  UNL1        0.0006
     25 C          -0.9839    2.1143   26.9090 C.ar    1  UNL1        0.0013
     26 C           0.1211    1.1867   26.4982 C.ar    1  UNL1        0.0154
     27 C          -2.1587    4.4258   26.7449 C.ar    1  UNL1        0.0070
     28 C          -1.9942    5.7182   27.4885 C.ar    1  UNL1        0.0355
     29 S          -3.3558    6.3151   27.6873 S.2     1  UNL1       -0.0853
     30 C          -4.3618    5.3917   27.0666 C.ar    1  UNL1        0.0434
     31 C          -3.6220    4.2241   26.4842 C.ar    1  UNL1        0.0081
     32 C          -5.8470    5.5994   27.0341 C.2     1  UNL1        0.0789
     33 O          -6.5941    5.4708   25.7397 O.co2   1  UNL1       -0.5441
     34 O          -6.5852    5.9358   28.2958 O.co2   1  UNL1       -0.5441
     35 C           7.5555   -3.3160   26.7245 C.3     1  UNL1        0.1183
     36 C           7.7224   -4.7246   26.2368 C.ar    1  UNL1        0.0712
     37 N           8.6269   -5.0141   25.0757 N.ar    1  UNL1       -0.2471
     38 C           8.7938   -6.4228   24.5881 C.ar    1  UNL1        0.0985
     39 C           8.0562   -7.5419   25.2615 C.ar    1  UNL1        0.0203
     40 C           7.1517   -7.2524   26.4225 C.ar    1  UNL1       -0.0015
     41 C           6.9848   -5.8438   26.9102 C.ar    1  UNL1       -0.0069
     42 C           6.0803   -5.5542   28.0713 C.3     1  UNL1        0.0323
@<TRIPOS>UNITY_ATOM_ATTR
33 1
charge -1
@<TRIPOS>BOND
     1    19    20    1
     2    20    13    1
     3    13    14   ar
     4    14    15   ar
     5    15     1    1
     6     1     2   am
     7     2     3    2
     8     2     4   am
     9     4    21    1
    10    21    22   ar
    11    22    23   ar
    12    23    24   ar
    13    24    27    1
    14    27    28   ar
    15    28    29   ar
    16    29    30   ar
    17    30    32    1
    18    32    33   ar
    19    32    34   ar
    20    30    31   ar
    21    24    25   ar
    22    25    26   ar
    23     4     5   am
    24     5     6    2
    25     5     7    1
    26     7     8    1
    27     8     9    1
    28     9    10    1
    29    10    35    1
    30    35    36    1
    31    36    37   ar
    32    37    38   ar
    33    38    39   ar
    34    39    40   ar
    35    40    41   ar
    36    41    42    1
    37    10    11    1
    38    11    12    1
    39    15    16   ar
    40    16    17   ar
    41    17    18   ar
    42    18    13   ar
    43     7     1    1
    44    41    36   ar
    45    26    21   ar
    46    12     7    1
    47    31    27   ar
@<TRIPOS>MOLECULE
*****
 42 47 0 0 0
SMALL
GASTEIGER

@<TRIPOS>ATOM
      1 N           4.1138   -1.0496   24.0268 N.am    1  UNL1       -0.2222
      2 C           3.0123   -0.0364   23.9248 C.2     1  UNL1        0.3219
      3 O           2.4485    0.5282   22.6547 O.2     1  UNL1       -0.2512
      4 N           2.5737    0.3130   25.3161 N.am    1  UNL1       -0.1907
      5 C           3.4040   -0.4842   26.2779 C.2     1  UNL1        0.2529
      6 O           3.3007   -0.4460   27.7738 O.2     1  UNL1       -0.2724
      7 C           4.3558   -1.3264   25.4811 C.3     1  UNL1        0.1391
      8 C           5.2434   -2.1049   24.5559 C.3     1  UNL1        0.0449
      9 C           6.2590   -3.0567   25.1151 C.3     1  UNL1        0.0746
     10 N           6.3869   -3.2299   26.5996 N.3     1  UNL1       -0.2676
     11 C           5.4993   -2.4514   27.5248 C.3     1  UNL1        0.0746
     12 C           4.4838   -1.4997   26.9655 C.3     1  UNL1        0.0449
     13 C           5.0420   -3.5513   21.0892 C.ar    1  UNL1        0.2293
     14 C           4.3110   -2.9248   22.2395 C.ar    1  UNL1        0.0924
     15 C           4.8447   -1.6761   22.8765 C.ar    1  UNL1        0.1453
     16 N           6.1093   -1.0538   22.3632 N.ar    1  UNL1       -0.2084
     17 C           6.8403   -1.6802   21.2129 C.ar    1  UNL1        0.2027
     18 N           6.3066   -2.9290   20.5759 N.ar    1  UNL1       -0.1892
     19 C           3.4934   -4.7057   19.3517 C.3     1  UNL1        0.2542
     20 O           4.5084   -4.8000   20.4521 O.3     1  UNL1       -0.4560
     21 C           1.4944    1.2884   25.6814 C.ar    1  UNL1        0.0622
     22 C           0.1250    1.1498   25.0850 C.ar    1  UNL1        0.0154
     23 C          -0.9544    2.1253   25.4503 C.ar    1  UNL1        0.0013
     24 C          -0.6645    3.2392   26.4121 C.ar    1  UNL1        0.0006
     25 C           0.7049    3.3778   27.0086 C.ar    1  UNL1        0.0013
     26 C           1.7843    2.4024   26.6432 C.ar    1  UNL1        0.0154
     27 C          -1.7439    4.2147   26.7774 C.ar    1  UNL1        0.0070
     28 C          -1.5439    5.5385   27.4540 C.ar    1  UNL1        0.0355
     29 S          -2.8891    6.1795   27.6251 S.2     1  UNL1       -0.0853
     30 C          -3.9205    5.2519   27.0542 C.ar    1  UNL1        0.0434
     31 C          -3.2127    4.0376   26.5304 C.ar    1  UNL1        0.0081
     32 C          -5.4000    5.4958   27.0143 C.2     1  UNL1        0.0789
     33 O          -6.1579    5.3015   25.7345 O.co2   1  UNL1       -0.5441
     34 O          -6.1217    5.9341   28.2540 O.co2   1  UNL1       -0.5441
     35 C           7.4025   -4.1818   27.1588 C.3     1  UNL1        0.1183
     36 C           7.5349   -4.3502   28.6434 C.ar    1  UNL1        0.0712
     37 N           6.7830   -5.4426   29.3443 N.ar    1  UNL1       -0.2471
     38 C           6.9155   -5.6110   30.8290 C.ar    1  UNL1        0.0985
     39 C           7.7998   -4.6870   31.6127 C.ar    1  UNL1        0.0203
     40 C           8.5517   -3.5946   30.9117 C.ar    1  UNL1       -0.0015
     41 C           8.4192   -3.4262   29.4271 C.ar    1  UNL1       -0.0069
     42 C           9.1711   -2.3337   28.7262 C.3     1  UNL1        0.0323
@<TRIPOS>UNITY_ATOM_ATTR
33 1
charge -1
@<TRIPOS>BOND
     1    19    20    1
     2    20    13    1
     3    13    14   ar
     4    14    15   ar
     5    15     1    1
     6     1     2   am
     7     2     3    2
     8     2     4   am
     9     4    21    1
    10    21    22   ar
    11    22    23   ar
    12    23    24   ar
    13    24    27    1
    14    27    28   ar
    15    28    29   ar
    16    29    30   ar
    17    30    32    1
    18    32    33   ar
    19    32    34   ar
    20    30    31   ar
    21    24    25   ar
    22    25    26   ar
    23     4     5   am
    24     5     6    2
    25     5     7    1
    26     7     8    1
    27     8     9    1
    28     9    10    1
    29    10    35    1
    30    35    36    1
    31    36    37   ar
    32    37    38   ar
    33    38    39   ar
    34    39    40   ar
    35    40    41   ar
    36    41    42    1
    37    10    11    1
    38    11    12    1
    39    15    16   ar
    40    16    17   ar
    41    17    18   ar
    42    18    13   ar
    43     7     1    1
    44    41    36   ar
    45    26    21   ar
    46    12     7    1
    47    31    27   ar
@<TRIPOS>MOLECULE
*****
 42 47 0 0 0
SMALL
GASTEIGER

@<TRIPOS>ATOM
      1 N           3.5694   -0.2342   30.4927 N.am    1  UNL1       -0.2222
      2 C           2.3198    0.5503   30.2221 C.2     1  UNL1        0.3219
      3 O           1.4224    1.1633   31.2560 O.2     1  UNL1       -0.2512
      4 N           2.1252    0.6142   28.7361 N.am    1  UNL1       -0.1907
      5 C           3.2545   -0.1308   28.0883 C.2     1  UNL1        0.2529
      6 O           3.4559   -0.3185   26.6138 O.2     1  UNL1       -0.2724
      7 C           4.1471   -0.6552   29.1739 C.3     1  UNL1        0.1391
      8 C           4.9409   -1.1126   30.3616 C.3     1  UNL1        0.0449
      9 C           6.1914   -1.9167   30.1632 C.3     1  UNL1        0.0746
     10 N           6.6482   -2.2634   28.7771 N.3     1  UNL1       -0.2676
     11 C           5.8544   -1.8060   27.5894 C.3     1  UNL1        0.0746
     12 C           4.6038   -1.0019   27.7878 C.3     1  UNL1        0.0449
     13 C           5.6639    0.1078   33.8461 C.ar    1  UNL1        0.2293
     14 C           5.0924    0.4171   32.4942 C.ar    1  UNL1        0.0924
     15 C           4.1409   -0.5435   31.8446 C.ar    1  UNL1        0.1453
     16 N           3.7610   -1.8134   32.5469 N.ar    1  UNL1       -0.2084
     17 C           4.3325   -2.1227   33.8987 C.ar    1  UNL1        0.2027
     18 N           5.2840   -1.1621   34.5484 N.ar    1  UNL1       -0.1892
     19 C           6.6783    1.1654   35.9914 C.3     1  UNL1        0.2542
     20 O           6.6153    1.0683   34.4958 O.3     1  UNL1       -0.4560
     21 C           0.9991    1.3023   28.0232 C.ar    1  UNL1        0.0622
     22 C           1.2935    2.2857   26.9294 C.ar    1  UNL1        0.0154
     23 C           0.1673    2.9738   26.2165 C.ar    1  UNL1        0.0013
     24 C          -1.2532    2.6786   26.5973 C.ar    1  UNL1        0.0006
     25 C          -1.5476    1.6952   27.6912 C.ar    1  UNL1        0.0013
     26 C          -0.4213    1.0071   28.4041 C.ar    1  UNL1        0.0154
     27 C          -2.3793    3.3667   25.8844 C.ar    1  UNL1        0.0070
     28 C          -2.3896    3.7768   24.4415 C.ar    1  UNL1        0.0355
     29 S          -3.7095    4.4291   24.1545 S.2     1  UNL1       -0.0853
     30 C          -4.5149    4.4221   25.4199 C.ar    1  UNL1        0.0434
     31 C          -3.6928    3.7655   26.4890 C.ar    1  UNL1        0.0081
     32 C          -5.8994    4.9747   25.5869 C.2     1  UNL1        0.0789
     33 O          -6.9189    4.7838   24.5034 O.co2   1  UNL1       -0.5441
     34 O          -6.2644    5.7183   26.8375 O.co2   1  UNL1       -0.5441
     35 C           7.8989   -3.0676   28.5788 C.3     1  UNL1        0.1183
     36 C           7.8912   -4.2513   27.6576 C.ar    1  UNL1        0.0712
     37 N           8.3221   -4.0932   26.2295 N.ar    1  UNL1       -0.2471
     38 C           8.3144   -5.2771   25.3083 C.ar    1  UNL1        0.0985
     39 C           7.8758   -6.6189   25.8152 C.ar    1  UNL1        0.0203
     40 C           7.4449   -6.7771   27.2432 C.ar    1  UNL1       -0.0015
     41 C           7.4526   -5.5933   28.1644 C.ar    1  UNL1       -0.0069
     42 C           7.0216   -5.7515   29.5924 C.3     1  UNL1        0.0323
@<TRIPOS>UNITY_ATOM_ATTR
33 1
charge -1
@<TRIPOS>BOND
     1    19    20    1
     2    20    13    1
     3    13    14   ar
     4    14    15   ar
     5    15     1    1
     6     1     2   am
     7     2     3    2
     8     2     4   am
     9     4    21    1
    10    21    22   ar
    11    22    23   ar
    12    23    24   ar
    13    24    27    1
    14    27    28   ar
    15    28    29   ar
    16    29    30   ar
    17    30    32    1
    18    32    33   ar
    19    32    34   ar
    20    30    31   ar
    21    24    25   ar
    22    25    26   ar
    23     4     5   am
    24     5     6    2
    25     5     7    1
    26     7     8    1
    27     8     9    1
    28     9    10    1
    29    10    35    1
    30    35    36    1
    31    36    37   ar
    32    37    38   ar
    33    38    39   ar
    34    39    40   ar
    35    40    41   ar
    36    41    42    1
    37    10    11    1
    38    11    12    1
    39    15    16   ar
    40    16    17   ar
    41    17    18   ar
    42    18    13   ar
    43     7     1    1
    44    41    36   ar
    45    26    21   ar
    46    12     7    1
    47    31    27   ar
@<TRIPOS>MOLECULE
*****
 42 47 0 0 0
SMALL
GASTEIGER

@<TRIPOS>ATOM
      1 N           1.6762    1.8089   24.2355 N.am    1  UNL1       -0.2222
      2 C           1.7935    1.8935   25.7286 C.2     1  UNL1        0.3219
      3 O           1.2411    2.9856   26.5958 O.2     1  UNL1       -0.2512
      4 N           2.5602    0.6942   26.2020 N.am    1  UNL1       -0.1907
      5 C           2.9168   -0.1315   25.0016 C.2     1  UNL1        0.2529
      6 O           3.6847   -1.4199   25.0142 O.2     1  UNL1       -0.2724
      7 C           2.3704    0.5573   23.7862 C.3     1  UNL1        0.1391
      8 C           1.7694    1.3566   22.6682 C.3     1  UNL1        0.0449
      9 C           1.8952    0.8779   21.2522 C.3     1  UNL1        0.0746
     10 N           2.6221   -0.3999   20.9542 N.3     1  UNL1       -0.2676
     11 C           3.2231   -1.1991   22.0722 C.3     1  UNL1        0.0746
     12 C           3.0973   -0.7205   23.4882 C.3     1  UNL1        0.0449
     13 C          -1.1749    3.6663   22.1932 C.ar    1  UNL1        0.2293
     14 C          -0.4846    2.6737   23.0811 C.ar    1  UNL1        0.0924
     15 C           0.9860    2.8015   23.3476 C.ar    1  UNL1        0.1453
     16 N           1.7663    3.9218   22.7264 N.ar    1  UNL1       -0.2084
     17 C           1.0761    4.9144   21.8386 C.ar    1  UNL1        0.2027
     18 N          -0.3946    4.7867   21.5720 N.ar    1  UNL1       -0.1892
     19 C          -3.1355    3.2861   20.5316 C.3     1  UNL1        0.2542
     20 O          -2.6454    3.5387   21.9266 O.3     1  UNL1       -0.4560
     21 C           2.9091    0.3766   27.6258 C.ar    1  UNL1        0.0622
     22 C           4.2990    0.6267   28.1311 C.ar    1  UNL1        0.0154
     23 C           4.6479    0.3090   29.5550 C.ar    1  UNL1        0.0013
     24 C           3.6068   -0.2588   30.4735 C.ar    1  UNL1        0.0006
     25 C           2.2167   -0.5089   29.9682 C.ar    1  UNL1        0.0013
     26 C           1.8679   -0.1912   28.5443 C.ar    1  UNL1        0.0154
     27 C           3.9556   -0.5765   31.8974 C.ar    1  UNL1        0.0070
     28 C           4.3147   -1.9295   32.4363 C.ar    1  UNL1        0.0355
     29 S           4.5877   -1.7862   33.9043 S.2     1  UNL1       -0.0853
     30 C           4.3973   -0.3446   34.2726 C.ar    1  UNL1        0.0434
     31 C           4.0067    0.4030   33.0323 C.ar    1  UNL1        0.0081
     32 C           4.5676    0.2457   35.6410 C.2     1  UNL1        0.0789
     33 O           5.4148   -0.4563   36.6605 O.co2   1  UNL1       -0.5441
     34 O           3.8907    1.5380   35.9899 O.co2   1  UNL1       -0.5441
     35 C           2.7478   -0.8785   19.5381 C.3     1  UNL1        0.1183
     36 C           4.0831   -1.3096   19.0080 C.ar    1  UNL1        0.0712
     37 N           5.1106   -0.2813   18.6379 N.ar    1  UNL1       -0.2471
     38 C           6.4460   -0.7124   18.1077 C.ar    1  UNL1        0.0985
     39 C           6.7538   -2.1717   17.9476 C.ar    1  UNL1        0.0203
     40 C           5.7263   -3.2000   18.3177 C.ar    1  UNL1       -0.0015
     41 C           4.3910   -2.7689   18.8479 C.ar    1  UNL1       -0.0069
     42 C           3.3635   -3.7972   19.2180 C.3     1  UNL1        0.0323
@<TRIPOS>UNITY_ATOM_ATTR
33 1
charge -1
@<TRIPOS>BOND
     1    19    20    1
     2    20    13    1
     3    13    14   ar
     4    14    15   ar
     5    15     1    1
     6     1     2   am
     7     2     3    2
     8     2     4   am
     9     4    21    1
    10    21    22   ar
    11    22    23   ar
    12    23    24   ar
    13    24    27    1
    14    27    28   ar
    15    28    29   ar
    16    29    30   ar
    17    30    32    1
    18    32    33   ar
    19    32    34   ar
    20    30    31   ar
    21    24    25   ar
    22    25    26   ar
    23     4     5   am
    24     5     6    2
    25     5     7    1
    26     7     8    1
    27     8     9    1
    28     9    10    1
    29    10    35    1
    30    35    36    1
    31    36    37   ar
    32    37    38   ar
    33    38    39   ar
    34    39    40   ar
    35    40    41   ar
    36    41    42    1
    37    10    11    1
    38    11    12    1
    39    15    16   ar
    40    16    17   ar
    41    17    18   ar
    42    18    13   ar
    43     7     1    1
    44    41    36   ar
    45    26    21   ar
    46    12     7    1
    47    31    27   ar
@<TRIPOS>MOLECULE
*****
 42 47 0 0 0
SMALL
GASTEIGER

@<TRIPOS>ATOM
      1 N           3.6166   -0.7431   21.8967 N.am    1  UNL1       -0.2222
      2 C           2.3719    0.0909   21.9700 C.2     1  UNL1        0.3219
      3 O           1.5297    0.5220   20.8060 O.2     1  UNL1       -0.2512
      4 N           2.1173    0.4180   23.4116 N.am    1  UNL1       -0.1907
      5 C           3.2047   -0.2138   24.2293 C.2     1  UNL1        0.2529
      6 O           3.3415   -0.1409   25.7212 O.2     1  UNL1       -0.2724
      7 C           4.1313   -0.9314   23.2930 C.3     1  UNL1        0.1391
      8 C           4.9648   -1.5999   22.2402 C.3     1  UNL1        0.0449
      9 C           6.1907   -2.3705   22.6316 C.3     1  UNL1        0.0746
     10 N           6.5833   -2.4725   24.0757 N.3     1  UNL1       -0.2676
     11 C           5.7498   -1.8039   25.1285 C.3     1  UNL1        0.0746
     12 C           4.5239   -1.0334   24.7371 C.3     1  UNL1        0.0449
     13 C           4.6187   -3.2695   19.0048 C.ar    1  UNL1        0.2293
     14 C           3.9978   -2.7203   20.2549 C.ar    1  UNL1        0.0924
     15 C           4.2376   -1.2923   20.6466 C.ar    1  UNL1        0.1453
     16 N           5.0983   -0.4135   19.7881 N.ar    1  UNL1       -0.2084
     17 C           5.7193   -0.9626   18.5381 C.ar    1  UNL1        0.2027
     18 N           5.4795   -2.3907   18.1464 N.ar    1  UNL1       -0.1892
     19 C           3.5131   -5.5743   19.4682 C.3     1  UNL1        0.2542
     20 O           4.3790   -4.6974   18.6131 O.3     1  UNL1       -0.4560
     21 C           0.9759    1.2336   23.9424 C.ar    1  UNL1        0.0622
     22 C           0.4580    0.9862   25.3282 C.ar    1  UNL1        0.0154
     23 C          -0.6835    1.8019   25.8589 C.ar    1  UNL1        0.0013
     24 C          -1.3071    2.8650   25.0039 C.ar    1  UNL1        0.0006
     25 C          -0.7891    3.1124   23.6180 C.ar    1  UNL1        0.0013
     26 C           0.3524    2.2967   23.0873 C.ar    1  UNL1        0.0154
     27 C          -2.4486    3.6806   25.5347 C.ar    1  UNL1        0.0070
     28 C          -2.4147    4.5579   26.7510 C.ar    1  UNL1        0.0355
     29 S          -3.7695    5.1817   26.9103 S.2     1  UNL1       -0.0853
     30 C          -4.6406    4.6900   25.7926 C.ar    1  UNL1        0.0434
     31 C          -3.8242    3.7623   24.9424 C.ar    1  UNL1        0.0081
     32 C          -6.0761    5.0608   25.5649 C.2     1  UNL1        0.0789
     33 O          -6.7668    6.0002   26.5086 O.co2   1  UNL1       -0.5441
     34 O          -6.8210    4.4924   24.3937 O.co2   1  UNL1       -0.5441
     35 C           7.8093   -3.2431   24.4670 C.3     1  UNL1        0.1183
     36 C           7.6911   -4.6786   24.8855 C.ar    1  UNL1        0.0712
     37 N           7.0636   -5.0267   26.2027 N.ar    1  UNL1       -0.2471
     38 C           6.9454   -6.4623   26.6212 C.ar    1  UNL1        0.0985
     39 C           7.4546   -7.5498   25.7224 C.ar    1  UNL1        0.0203
     40 C           8.0821   -7.2018   24.4051 C.ar    1  UNL1       -0.0015
     41 C           8.2003   -5.7663   23.9866 C.ar    1  UNL1       -0.0069
     42 C           8.8278   -5.4183   22.6694 C.3     1  UNL1        0.0323
@<TRIPOS>UNITY_ATOM_ATTR
33 1
charge -1
@<TRIPOS>BOND
     1    19    20    1
     2    20    13    1
     3    13    14   ar
     4    14    15   ar
     5    15     1    1
     6     1     2   am
     7     2     3    2
     8     2     4   am
     9     4    21    1
    10    21    22   ar
    11    22    23   ar
    12    23    24   ar
    13    24    27    1
    14    27    28   ar
    15    28    29   ar
    16    29    30   ar
    17    30    32    1
    18    32    33   ar
    19    32    34   ar
    20    30    31   ar
    21    24    25   ar
    22    25    26   ar
    23     4     5   am
    24     5     6    2
    25     5     7    1
    26     7     8    1
    27     8     9    1
    28     9    10    1
    29    10    35    1
    30    35    36    1
    31    36    37   ar
    32    37    38   ar
    33    38    39   ar
    34    39    40   ar
    35    40    41   ar
    36    41    42    1
    37    10    11    1
    38    11    12    1
    39    15    16   ar
    40    16    17   ar
    41    17    18   ar
    42    18    13   ar
    43     7     1    1
    44    41    36   ar
    45    26    21   ar
    46    12     7    1
    47    31    27   ar
@<TRIPOS>MOLECULE
*****
 42 47 0 0 0
SMALL
GASTEIGER

@<TRIPOS>ATOM
      1 N           4.4084   -0.5482   26.5129 N.am    1  UNL1       -0.2222
      2 C           3.4802    0.4477   27.1427 C.2     1  UNL1        0.3219
      3 O           3.5827    0.9891   28.5378 O.2     1  UNL1       -0.2512
      4 N           2.4314    0.8073   26.1322 N.am    1  UNL1       -0.1907
      5 C           2.7115    0.0336   24.8781 C.2     1  UNL1        0.2529
      6 O           1.9104    0.0880   23.6111 O.2     1  UNL1       -0.2724
      7 C           3.9334   -0.8042   25.1133 C.3     1  UNL1        0.1391
      8 C           5.1592   -1.5807   25.4931 C.3     1  UNL1        0.0449
      9 C           5.7944   -2.5110   24.5027 C.3     1  UNL1        0.0746
     10 N           5.2038   -2.6648   23.1325 N.3     1  UNL1       -0.2676
     11 C           3.9780   -1.8883   22.7527 C.3     1  UNL1        0.0746
     12 C           3.3428   -0.9580   23.7431 C.3     1  UNL1        0.0449
     13 C           6.6381   -3.0738   28.6104 C.ar    1  UNL1        0.2293
     14 C           5.4444   -2.4444   27.9555 C.ar    1  UNL1        0.0924
     15 C           5.6021   -1.1777   27.1678 C.ar    1  UNL1        0.1453
     16 N           6.9535   -0.5404   27.0349 N.ar    1  UNL1       -0.2084
     17 C           8.1472   -1.1698   27.6897 C.ar    1  UNL1        0.2027
     18 N           7.9895   -2.4366   28.4775 N.ar    1  UNL1       -0.1892
     19 C           7.4405   -5.4748   29.1942 C.3     1  UNL1        0.2542
     20 O           6.4805   -4.3405   29.3982 O.3     1  UNL1       -0.4560
     21 C           1.3011    1.7713   26.3396 C.ar    1  UNL1        0.0622
     22 C          -0.1068    1.2647   26.4447 C.ar    1  UNL1        0.0154
     23 C          -1.2372    2.2288   26.6521 C.ar    1  UNL1        0.0013
     24 C          -0.9596    3.6993   26.7543 C.ar    1  UNL1        0.0006
     25 C           0.4484    4.2059   26.6492 C.ar    1  UNL1        0.0013
     26 C           1.5787    3.2418   26.4418 C.ar    1  UNL1        0.0154
     27 C          -2.0900    4.6633   26.9617 C.ar    1  UNL1        0.0070
     28 C          -1.9591    6.1010   27.3692 C.ar    1  UNL1        0.0355
     29 S          -3.3378    6.6852   27.4574 S.2     1  UNL1       -0.0853
     30 C          -4.3208    5.6085   27.1043 C.ar    1  UNL1        0.0434
     31 C          -3.5496    4.3590   26.7980 C.ar    1  UNL1        0.0081
     32 C          -5.8130    5.7556   27.0645 C.2     1  UNL1        0.0789
     33 O          -6.5800    5.9669   28.3362 O.co2   1  UNL1       -0.5441
     34 O          -6.5384    5.6913   25.7532 O.co2   1  UNL1       -0.5441
     35 C           5.8391   -3.5952   22.1420 C.3     1  UNL1        0.1183
     36 C           6.1187   -3.1262   20.7450 C.ar    1  UNL1        0.0712
     37 N           7.3053   -2.2504   20.4712 N.ar    1  UNL1       -0.2471
     38 C           7.5849   -1.7815   19.0740 C.ar    1  UNL1        0.0985
     39 C           6.6779   -2.1883   17.9507 C.ar    1  UNL1        0.0203
     40 C           5.4913   -3.0640   18.2245 C.ar    1  UNL1       -0.0015
     41 C           5.2117   -3.5330   19.6216 C.ar    1  UNL1       -0.0069
     42 C           4.0251   -4.4088   19.8954 C.3     1  UNL1        0.0323
@<TRIPOS>UNITY_ATOM_ATTR
33 1
charge -1
@<TRIPOS>BOND
     1    19    20    1
     2    20    13    1
     3    13    14   ar
     4    14    15   ar
     5    15     1    1
     6     1     2   am
     7     2     3    2
     8     2     4   am
     9     4    21    1
    10    21    22   ar
    11    22    23   ar
    12    23    24   ar
    13    24    27    1
    14    27    28   ar
    15    28    29   ar
    16    29    30   ar
    17    30    32    1
    18    32    33   ar
    19    32    34   ar
    20    30    31   ar
    21    24    25   ar
    22    25    26   ar
    23     4     5   am
    24     5     6    2
    25     5     7    1
    26     7     8    1
    27     8     9    1
    28     9    10    1
    29    10    35    1
    30    35    36    1
    31    36    37   ar
    32    37    38   ar
    33    38    39   ar
    34    39    40   ar
    35    40    41   ar
    36    41    42    1
    37    10    11    1
    38    11    12    1
    39    15    16   ar
    40    16    17   ar
    41    17    18   ar
    42    18    13   ar
    43     7     1    1
    44    41    36   ar
    45    26    21   ar
    46    12     7    1
    47    31    27   ar
