@<TRIPOS>MOLECULE
*****
 30 33 0 0 0
SMALL
GASTEIGER

@<TRIPOS>ATOM
      1 C         -11.3767  -18.1959   19.8954 C.3     1  UNL1        0.2068
      2 O         -12.0855  -17.8493   21.1711 O.3     1  UNL1       -0.4754
      3 C         -10.6034  -19.2737   24.5659 C.ar    1  UNL1        0.0028
      4 C          -9.8914  -18.0637   25.0941 C.ar    1  UNL1       -0.0027
      5 C          -9.9108  -16.7823   24.3147 C.ar    1  UNL1       -0.0031
      6 C         -10.6421  -16.7108   23.0070 C.ar    1  UNL1        0.0340
      7 C         -11.3541  -17.9208   22.4788 C.ar    1  UNL1        0.1383
      8 C         -11.3347  -19.2022   23.2583 C.ar    1  UNL1        0.0369
      9 C          -9.1988  -15.5723   24.8430 C.3     1  UNL1        0.0992
     10 N          -7.7053  -15.5820   24.9819 N.3     1  UNL1       -0.2690
     11 C          -7.0790  -15.6244   26.3443 C.3     1  UNL1        0.0724
     12 C          -5.5855  -15.6342   26.4832 C.3     1  UNL1        0.0174
     13 C          -4.7182  -15.6016   25.2597 C.3     1  UNL1        0.0029
     14 C          -5.3445  -15.5592   23.8974 C.3     1  UNL1        0.0174
     15 C          -6.8380  -15.5494   23.7585 C.3     1  UNL1        0.0724
     16 C         -10.6689  -19.5120   19.7644 C.3     1  UNL1        0.0646
     17 C          -9.3107  -19.5733   19.1308 C.3     1  UNL1        0.0759
     18 N          -8.0821  -19.3881   19.9712 N.3     1  UNL1       -0.2726
     19 C          -8.2097  -19.1872   21.4522 C.3     1  UNL1        0.0721
     20 C          -6.9812  -19.0020   22.2926 C.3     1  UNL1        0.0178
     21 C          -5.6249  -19.0177   21.6520 C.3     1  UNL1        0.0087
     22 C          -5.4972  -19.2187   20.1711 C.3     1  UNL1        0.0178
     23 C          -6.7259  -19.4039   19.3306 C.3     1  UNL1        0.0721
     24 C          -4.3964  -18.8325   22.4924 C.3     1  UNL1        0.0453
     25 C          -3.1153  -18.3778   21.8581 C.ar    1  UNL1        0.0541
     26 C          -1.9795  -19.2608   21.4337 C.ar    1  UNL1        0.1131
     27 N          -0.9075  -18.3889   20.8502 N.ar    1  UNL1       -0.2229
     28 C          -1.3807  -16.9669   20.9140 C.ar    1  UNL1        0.1748
     29 N          -2.7452  -16.9600   21.5370 N.ar    1  UNL1       -0.3382
     30 H          -3.3004  -16.1647   21.7055 H       1  UNL1        0.1672
@<TRIPOS>BOND
     1     3     4   ar
     2     4     5   ar
     3     5     9    1
     4     9    10    1
     5    10    11    1
     6    11    12    1
     7    12    13    1
     8    13    14    1
     9    14    15    1
    10     5     6   ar
    11     6     7   ar
    12     7     2    1
    13     2     1    1
    14     1    16    1
    15    16    17    1
    16    17    18    1
    17    18    19    1
    18    19    20    1
    19    20    21    1
    20    21    24    1
    21    24    25    1
    22    25    26   ar
    23    26    27   ar
    24    27    28   ar
    25    28    29   ar
    26    21    22    1
    27    22    23    1
    28     7     8   ar
    29     8     3   ar
    30    15    10    1
    31    23    18    1
    32    29    25   ar
    33    29    30    1
@<TRIPOS>MOLECULE
*****
 30 33 0 0 0
SMALL
GASTEIGER

@<TRIPOS>ATOM
      1 C          -3.9978  -17.5721   24.1369 C.3     1  UNL1        0.2068
      2 O          -3.2151  -18.1710   23.0061 O.3     1  UNL1       -0.4754
      3 C          -3.9024  -20.7361   20.0569 C.ar    1  UNL1        0.0028
      4 C          -5.3401  -20.4376   19.7509 C.ar    1  UNL1       -0.0027
      5 C          -6.0696  -19.3836   20.5299 C.ar    1  UNL1       -0.0031
      6 C          -5.3613  -18.6280   21.6150 C.ar    1  UNL1        0.0340
      7 C          -3.9235  -18.9265   21.9210 C.ar    1  UNL1        0.1383
      8 C          -3.1941  -19.9805   21.1419 C.ar    1  UNL1        0.0369
      9 C          -7.5075  -19.0851   20.2239 C.3     1  UNL1        0.0992
     10 N          -8.5748  -19.4403   21.2161 N.3     1  UNL1       -0.2690
     11 C         -10.0015  -19.5661   20.7702 C.3     1  UNL1        0.0724
     12 C         -11.0689  -19.9213   21.7625 C.3     1  UNL1        0.0174
     13 C         -10.7095  -20.1507   23.2007 C.3     1  UNL1        0.0029
     14 C          -9.2829  -20.0249   23.6465 C.3     1  UNL1        0.0174
     15 C          -8.2155  -19.6698   22.6543 C.3     1  UNL1        0.0724
     16 C          -4.2003  -16.0874   24.2054 C.3     1  UNL1        0.0646
     17 C          -5.3657  -15.5235   24.9629 C.3     1  UNL1        0.0759
     18 N          -6.7635  -15.7573   24.4715 N.3     1  UNL1       -0.2726
     19 C          -7.0651  -15.6817   23.0041 C.3     1  UNL1        0.0721
     20 C          -8.4629  -15.9156   22.5127 C.3     1  UNL1        0.0178
     21 C          -9.5591  -16.2250   23.4888 C.3     1  UNL1        0.0087
     22 C          -9.2575  -16.3006   24.9562 C.3     1  UNL1        0.0178
     23 C          -7.8596  -16.0667   25.4476 C.3     1  UNL1        0.0721
     24 C         -10.9569  -16.4588   22.9975 C.3     1  UNL1        0.0453
     25 C         -11.3052  -16.1789   21.5655 C.ar    1  UNL1        0.0541
     26 C         -12.5705  -16.5858   20.8701 C.ar    1  UNL1        0.1131
     27 N         -12.4967  -16.1013   19.4525 N.ar    1  UNL1       -0.2229
     28 C         -11.1858  -15.3949   19.2717 C.ar    1  UNL1        0.1748
     29 N         -10.4495  -15.4429   20.5776 N.ar    1  UNL1       -0.3382
     30 H          -9.5606  -15.0587   20.7552 H       1  UNL1        0.1672
@<TRIPOS>BOND
     1     3     4   ar
     2     4     5   ar
     3     5     9    1
     4     9    10    1
     5    10    11    1
     6    11    12    1
     7    12    13    1
     8    13    14    1
     9    14    15    1
    10     5     6   ar
    11     6     7   ar
    12     7     2    1
    13     2     1    1
    14     1    16    1
    15    16    17    1
    16    17    18    1
    17    18    19    1
    18    19    20    1
    19    20    21    1
    20    21    24    1
    21    24    25    1
    22    25    26   ar
    23    26    27   ar
    24    27    28   ar
    25    28    29   ar
    26    21    22    1
    27    22    23    1
    28     7     8   ar
    29     8     3   ar
    30    15    10    1
    31    23    18    1
    32    29    25   ar
    33    29    30    1
@<TRIPOS>MOLECULE
*****
 30 33 0 0 0
SMALL
GASTEIGER

@<TRIPOS>ATOM
      1 C          -5.5318  -21.0038   20.9259 C.3     1  UNL1        0.2068
      2 O          -5.5246  -20.2755   22.2371 O.3     1  UNL1       -0.4754
      3 C          -2.3101  -17.9485   22.1867 C.ar    1  UNL1        0.0028
      4 C          -2.8560  -16.6975   22.8086 C.ar    1  UNL1       -0.0027
      5 C          -4.2914  -16.6391   23.2401 C.ar    1  UNL1       -0.0031
      6 C          -5.1810  -17.8317   23.0496 C.ar    1  UNL1        0.0340
      7 C          -4.6351  -19.0827   22.4276 C.ar    1  UNL1        0.1383
      8 C          -3.1996  -19.1411   21.9962 C.ar    1  UNL1        0.0369
      9 C          -4.8373  -15.3880   23.8621 C.3     1  UNL1        0.0992
     10 N          -5.9931  -15.4668   24.8150 N.3     1  UNL1       -0.2690
     11 C          -5.7429  -15.5813   26.2896 C.3     1  UNL1        0.0724
     12 C          -6.8987  -15.6601   27.2424 C.3     1  UNL1        0.0174
     13 C          -8.3046  -15.6244   26.7207 C.3     1  UNL1        0.0029
     14 C          -8.5547  -15.5099   25.2462 C.3     1  UNL1        0.0174
     15 C          -7.3990  -15.4311   24.2933 C.3     1  UNL1        0.0724
     16 C          -6.6460  -20.7763   19.9476 C.3     1  UNL1        0.0646
     17 C          -7.0922  -19.3797   19.6306 C.3     1  UNL1        0.0759
     18 N          -8.3764  -18.8550   20.2010 N.3     1  UNL1       -0.2726
     19 C          -8.3496  -17.9203   21.3739 C.3     1  UNL1        0.0721
     20 C          -9.6338  -17.3956   21.9443 C.3     1  UNL1        0.0178
     21 C         -10.9449  -17.8056   21.3419 C.3     1  UNL1        0.0087
     22 C         -10.9718  -18.7403   20.1691 C.3     1  UNL1        0.0178
     23 C          -9.6875  -19.2651   19.5986 C.3     1  UNL1        0.0721
     24 C         -12.2292  -17.2809   21.9123 C.3     1  UNL1        0.0453
     25 C         -12.7494  -17.8220   23.2110 C.ar    1  UNL1        0.0541
     26 C         -11.9382  -18.5142   24.2659 C.ar    1  UNL1        0.1131
     27 N         -12.8597  -18.8859   25.3897 N.ar    1  UNL1       -0.2229
     28 C         -14.2404  -18.4234   25.0293 C.ar    1  UNL1        0.1748
     29 N         -14.1722  -17.7659   23.6828 N.ar    1  UNL1       -0.3382
     30 H         -14.9285  -17.3674   23.1944 H       1  UNL1        0.1672
@<TRIPOS>BOND
     1     3     4   ar
     2     4     5   ar
     3     5     9    1
     4     9    10    1
     5    10    11    1
     6    11    12    1
     7    12    13    1
     8    13    14    1
     9    14    15    1
    10     5     6   ar
    11     6     7   ar
    12     7     2    1
    13     2     1    1
    14     1    16    1
    15    16    17    1
    16    17    18    1
    17    18    19    1
    18    19    20    1
    19    20    21    1
    20    21    24    1
    21    24    25    1
    22    25    26   ar
    23    26    27   ar
    24    27    28   ar
    25    28    29   ar
    26    21    22    1
    27    22    23    1
    28     7     8   ar
    29     8     3   ar
    30    15    10    1
    31    23    18    1
    32    29    25   ar
    33    29    30    1
@<TRIPOS>MOLECULE
*****
 30 33 0 0 0
SMALL
GASTEIGER

@<TRIPOS>ATOM
      1 C          -5.4414  -15.7742   25.7992 C.3     1  UNL1        0.2068
      2 O          -5.6629  -15.6455   24.3213 O.3     1  UNL1       -0.4754
      3 C          -7.1677  -18.6290   22.1803 C.ar    1  UNL1        0.0028
      4 C          -5.9136  -19.3328   21.7540 C.ar    1  UNL1       -0.0027
      5 C          -4.5758  -18.8075   22.1835 C.ar    1  UNL1       -0.0031
      6 C          -4.4922  -17.5784   23.0392 C.ar    1  UNL1        0.0340
      7 C          -5.7464  -16.8746   23.4655 C.ar    1  UNL1        0.1383
      8 C          -7.0842  -17.4000   23.0360 C.ar    1  UNL1        0.0369
      9 C          -3.3216  -19.5113   21.7572 C.3     1  UNL1        0.0992
     10 N          -2.4163  -18.8809   20.7408 N.3     1  UNL1       -0.2690
     11 C          -2.9141  -18.6254   19.3490 C.3     1  UNL1        0.0724
     12 C          -2.0089  -17.9950   18.3326 C.3     1  UNL1        0.0174
     13 C          -0.6058  -17.6200   18.7080 C.3     1  UNL1        0.0029
     14 C          -0.1081  -17.8755   20.0997 C.3     1  UNL1        0.0174
     15 C          -1.0133  -18.5059   21.1161 C.3     1  UNL1        0.0724
     16 C          -6.4157  -15.1595   26.7599 C.3     1  UNL1        0.0646
     17 C          -7.6386  -15.9209   27.1780 C.3     1  UNL1        0.0759
     18 N          -8.5995  -16.4240   26.1419 N.3     1  UNL1       -0.2726
     19 C          -9.0654  -15.5124   25.0455 C.3     1  UNL1        0.0721
     20 C         -10.0262  -16.0155   24.0094 C.3     1  UNL1        0.0178
     21 C         -10.5213  -17.4301   24.0695 C.3     1  UNL1        0.0087
     22 C         -10.0554  -18.3417   25.1659 C.3     1  UNL1        0.0178
     23 C          -9.0945  -17.8387   26.2021 C.3     1  UNL1        0.0721
     24 C         -11.4821  -17.9332   23.0334 C.3     1  UNL1        0.0453
     25 C         -10.9773  -18.3615   21.6874 C.ar    1  UNL1        0.0541
     26 C         -10.7207  -17.4619   20.5148 C.ar    1  UNL1        0.1131
     27 N         -10.2252  -18.3089   19.3804 N.ar    1  UNL1       -0.2229
     28 C         -10.1756  -19.7321   19.8518 C.ar    1  UNL1        0.1748
     29 N         -10.6404  -19.7645   21.2776 N.ar    1  UNL1       -0.3382
     30 H         -10.7118  -20.5660   21.8448 H       1  UNL1        0.1672
@<TRIPOS>BOND
     1     3     4   ar
     2     4     5   ar
     3     5     9    1
     4     9    10    1
     5    10    11    1
     6    11    12    1
     7    12    13    1
     8    13    14    1
     9    14    15    1
    10     5     6   ar
    11     6     7   ar
    12     7     2    1
    13     2     1    1
    14     1    16    1
    15    16    17    1
    16    17    18    1
    17    18    19    1
    18    19    20    1
    19    20    21    1
    20    21    24    1
    21    24    25    1
    22    25    26   ar
    23    26    27   ar
    24    27    28   ar
    25    28    29   ar
    26    21    22    1
    27    22    23    1
    28     7     8   ar
    29     8     3   ar
    30    15    10    1
    31    23    18    1
    32    29    25   ar
    33    29    30    1
@<TRIPOS>MOLECULE
*****
 30 33 0 0 0
SMALL
GASTEIGER

@<TRIPOS>ATOM
      1 C          -2.9721  -20.4428   20.6209 C.3     1  UNL1        0.2068
      2 O          -2.9762  -19.9161   22.0253 O.3     1  UNL1       -0.4754
      3 C          -2.4065  -16.0013   21.7093 C.ar    1  UNL1        0.0028
      4 C          -3.3392  -15.4927   22.7683 C.ar    1  UNL1       -0.0027
      5 C          -4.1508  -16.4586   23.5796 C.ar    1  UNL1       -0.0031
      6 C          -4.0299  -17.9331   23.3320 C.ar    1  UNL1        0.0340
      7 C          -3.0972  -18.4416   22.2730 C.ar    1  UNL1        0.1383
      8 C          -2.2856  -17.4757   21.4617 C.ar    1  UNL1        0.0369
      9 C          -5.0835  -15.9500   24.6387 C.3     1  UNL1        0.0992
     10 N          -6.5641  -15.9523   24.3981 N.3     1  UNL1       -0.2690
     11 C          -7.1018  -16.2676   23.0337 C.3     1  UNL1        0.0724
     12 C          -8.5824  -16.2699   22.7932 C.3     1  UNL1        0.0174
     13 C          -9.5253  -15.9570   23.9171 C.3     1  UNL1        0.0029
     14 C          -8.9876  -15.6418   25.2814 C.3     1  UNL1        0.0174
     15 C          -7.5070  -15.6395   25.5220 C.3     1  UNL1        0.0724
     16 C          -4.2522  -20.5113   19.8418 C.3     1  UNL1        0.0646
     17 C          -5.1775  -19.3311   19.8143 C.3     1  UNL1        0.0759
     18 N          -6.5696  -19.4568   20.3587 N.3     1  UNL1       -0.2726
     19 C          -6.7837  -19.6778   21.8268 C.3     1  UNL1        0.0721
     20 C          -8.1758  -19.8034   22.3711 C.3     1  UNL1        0.0178
     21 C          -9.3538  -19.7081   21.4473 C.3     1  UNL1        0.0087
     22 C          -9.1397  -19.4870   19.9793 C.3     1  UNL1        0.0178
     23 C          -7.7475  -19.3614   19.4349 C.3     1  UNL1        0.0721
     24 C         -10.7458  -19.8337   21.9917 C.3     1  UNL1        0.0453
     25 C         -11.5730  -18.6046   22.2268 C.ar    1  UNL1        0.0541
     26 C         -12.3813  -18.3075   23.4549 C.ar    1  UNL1        0.1131
     27 N         -13.0449  -16.9761   23.2622 N.ar    1  UNL1       -0.2229
     28 C         -12.6467  -16.4504   21.9149 C.ar    1  UNL1        0.1748
     29 N         -11.7370  -17.4569   21.2750 N.ar    1  UNL1       -0.3382
     30 H         -11.3207  -17.3780   20.3864 H       1  UNL1        0.1672
@<TRIPOS>BOND
     1     3     4   ar
     2     4     5   ar
     3     5     9    1
     4     9    10    1
     5    10    11    1
     6    11    12    1
     7    12    13    1
     8    13    14    1
     9    14    15    1
    10     5     6   ar
    11     6     7   ar
    12     7     2    1
    13     2     1    1
    14     1    16    1
    15    16    17    1
    16    17    18    1
    17    18    19    1
    18    19    20    1
    19    20    21    1
    20    21    24    1
    21    24    25    1
    22    25    26   ar
    23    26    27   ar
    24    27    28   ar
    25    28    29   ar
    26    21    22    1
    27    22    23    1
    28     7     8   ar
    29     8     3   ar
    30    15    10    1
    31    23    18    1
    32    29    25   ar
    33    29    30    1
@<TRIPOS>MOLECULE
*****
 30 33 0 0 0
SMALL
GASTEIGER

@<TRIPOS>ATOM
      1 C          -3.1519  -20.3293   20.9130 C.3     1  UNL1        0.2068
      2 O          -3.5997  -19.7360   22.2159 O.3     1  UNL1       -0.4754
      3 C          -2.4830  -15.9278   22.2415 C.ar    1  UNL1        0.0028
      4 C          -3.7407  -15.2669   22.7227 C.ar    1  UNL1       -0.0027
      5 C          -4.9513  -16.0957   23.0349 C.ar    1  UNL1       -0.0031
      6 C          -4.9043  -17.5854   22.8660 C.ar    1  UNL1        0.0340
      7 C          -3.6467  -18.2463   22.3848 C.ar    1  UNL1        0.1383
      8 C          -2.4361  -17.4175   22.0726 C.ar    1  UNL1        0.0369
      9 C          -6.2090  -15.4347   23.5160 C.3     1  UNL1        0.0992
     10 N          -6.6848  -15.6605   24.9205 N.3     1  UNL1       -0.2690
     11 C          -8.1263  -15.9839   25.1811 C.3     1  UNL1        0.0724
     12 C          -8.6021  -16.2097   26.5856 C.3     1  UNL1        0.0174
     13 C          -7.6366  -16.1122   27.7295 C.3     1  UNL1        0.0029
     14 C          -6.1953  -15.7889   27.4688 C.3     1  UNL1        0.0174
     15 C          -5.7194  -15.5630   26.0643 C.3     1  UNL1        0.0724
     16 C          -4.1672  -20.8264   19.9269 C.3     1  UNL1        0.0646
     17 C          -5.5170  -21.2759   20.4024 C.3     1  UNL1        0.0759
     18 N          -6.4953  -20.2734   20.9390 N.3     1  UNL1       -0.2726
     19 C          -6.8287  -19.0487   20.1396 C.3     1  UNL1        0.0721
     20 C          -7.8070  -18.0462   20.6762 C.3     1  UNL1        0.0178
     21 C          -8.4518  -18.2683   22.0121 C.3     1  UNL1        0.0087
     22 C          -8.1184  -19.4930   22.8115 C.3     1  UNL1        0.0178
     23 C          -7.1401  -20.4955   22.2749 C.3     1  UNL1        0.0721
     24 C          -9.4301  -17.2659   22.5487 C.3     1  UNL1        0.0453
     25 C         -10.8244  -17.2097   21.9983 C.ar    1  UNL1        0.0541
     26 C         -11.3773  -16.1389   21.1052 C.ar    1  UNL1        0.1131
     27 N         -12.8051  -16.4818   20.7994 N.ar    1  UNL1       -0.2229
     28 C         -13.1348  -17.7646   21.5036 C.ar    1  UNL1        0.1748
     29 N         -11.9107  -18.2144   22.2446 N.ar    1  UNL1       -0.3382
     30 H         -11.8336  -19.0265   22.7958 H       1  UNL1        0.1672
@<TRIPOS>BOND
     1     3     4   ar
     2     4     5   ar
     3     5     9    1
     4     9    10    1
     5    10    11    1
     6    11    12    1
     7    12    13    1
     8    13    14    1
     9    14    15    1
    10     5     6   ar
    11     6     7   ar
    12     7     2    1
    13     2     1    1
    14     1    16    1
    15    16    17    1
    16    17    18    1
    17    18    19    1
    18    19    20    1
    19    20    21    1
    20    21    24    1
    21    24    25    1
    22    25    26   ar
    23    26    27   ar
    24    27    28   ar
    25    28    29   ar
    26    21    22    1
    27    22    23    1
    28     7     8   ar
    29     8     3   ar
    30    15    10    1
    31    23    18    1
    32    29    25   ar
    33    29    30    1
@<TRIPOS>MOLECULE
*****
 30 33 0 0 0
SMALL
GASTEIGER

@<TRIPOS>ATOM
      1 C           6.4116   -0.3805   17.2337 C.3     1  UNL1        0.2068
      2 O           6.6932   -1.8518   17.3108 O.3     1  UNL1       -0.4754
      3 C           4.5053   -4.1972   19.6479 C.ar    1  UNL1        0.0028
      4 C           5.3418   -4.2167   20.8928 C.ar    1  UNL1       -0.0027
      5 C           6.6288   -3.4479   20.9437 C.ar    1  UNL1       -0.0031
      6 C           7.0792   -2.6596   19.7497 C.ar    1  UNL1        0.0340
      7 C           6.2427   -2.6401   18.5048 C.ar    1  UNL1        0.1383
      8 C           4.9557   -3.4089   18.4539 C.ar    1  UNL1        0.0369
      9 C           7.4653   -3.4674   22.1887 C.3     1  UNL1        0.0992
     10 N           7.8039   -4.7733   22.8443 N.3     1  UNL1       -0.2690
     11 C           7.3405   -5.0526   24.2434 C.3     1  UNL1        0.0724
     12 C           7.6792   -6.3585   24.8990 C.3     1  UNL1        0.0174
     13 C           8.4812   -7.3852   24.1555 C.3     1  UNL1        0.0029
     14 C           8.9446   -7.1059   22.7565 C.3     1  UNL1        0.0174
     15 C           8.6060   -5.8000   22.1009 C.3     1  UNL1        0.0724
     16 C           5.0023    0.1058   17.0677 C.3     1  UNL1        0.0646
     17 C           4.3248    0.8380   18.1879 C.3     1  UNL1        0.0759
     18 N           4.2508    0.2188   19.5521 N.3     1  UNL1       -0.2726
     19 C           3.0944   -0.6660   19.9126 C.3     1  UNL1        0.0721
     20 C           3.0205   -1.2851   21.2768 C.3     1  UNL1        0.0178
     21 C           4.1030   -1.0195   22.2806 C.3     1  UNL1        0.0087
     22 C           5.2593   -0.1347   21.9202 C.3     1  UNL1        0.0178
     23 C           5.3333    0.4845   20.5560 C.3     1  UNL1        0.0721
     24 C           4.0290   -1.6386   23.6448 C.3     1  UNL1        0.0453
     25 C           3.5113   -0.8397   24.8041 C.ar    1  UNL1        0.0541
     26 C           3.7984   -1.1006   26.2530 C.ar    1  UNL1        0.1131
     27 N           3.0801   -0.0617   27.0622 N.ar    1  UNL1       -0.2229
     28 C           2.3491    0.8413   26.1134 C.ar    1  UNL1        0.1748
     29 N           2.6156    0.3604   24.7178 N.ar    1  UNL1       -0.3382
     30 H           2.2643    0.7620   23.8904 H       1  UNL1        0.1672
@<TRIPOS>BOND
     1     3     4   ar
     2     4     5   ar
     3     5     9    1
     4     9    10    1
     5    10    11    1
     6    11    12    1
     7    12    13    1
     8    13    14    1
     9    14    15    1
    10     5     6   ar
    11     6     7   ar
    12     7     2    1
    13     2     1    1
    14     1    16    1
    15    16    17    1
    16    17    18    1
    17    18    19    1
    18    19    20    1
    19    20    21    1
    20    21    24    1
    21    24    25    1
    22    25    26   ar
    23    26    27   ar
    24    27    28   ar
    25    28    29   ar
    26    21    22    1
    27    22    23    1
    28     7     8   ar
    29     8     3   ar
    30    15    10    1
    31    23    18    1
    32    29    25   ar
    33    29    30    1
@<TRIPOS>MOLECULE
*****
 30 33 0 0 0
SMALL
GASTEIGER

@<TRIPOS>ATOM
      1 C           6.1092   -0.7254   17.4180 C.3     1  UNL1        0.2068
      2 O           5.8981   -2.2102   17.4478 O.3     1  UNL1       -0.4754
      3 C           3.8960   -4.5617   19.9402 C.ar    1  UNL1        0.0028
      4 C           4.5511   -4.2155   21.2444 C.ar    1  UNL1       -0.0027
      5 C           5.6552   -3.2009   21.2831 C.ar    1  UNL1       -0.0031
      6 C           6.1042   -2.5325   20.0176 C.ar    1  UNL1        0.0340
      7 C           5.4491   -2.8786   18.7134 C.ar    1  UNL1        0.1383
      8 C           4.3450   -3.8932   18.6747 C.ar    1  UNL1        0.0369
      9 C           6.3103   -2.8547   22.5874 C.3     1  UNL1        0.0992
     10 N           6.8254   -3.9444   23.4803 N.3     1  UNL1       -0.2690
     11 C           7.7303   -5.0041   22.9251 C.3     1  UNL1        0.0724
     12 C           8.2454   -6.0937   23.8181 C.3     1  UNL1        0.0174
     13 C           7.8556   -6.1236   25.2663 C.3     1  UNL1        0.0029
     14 C           6.9508   -5.0638   25.8215 C.3     1  UNL1        0.0174
     15 C           6.4357   -3.9742   24.9285 C.3     1  UNL1        0.0724
     16 C           5.0134    0.1785   16.9361 C.3     1  UNL1        0.0646
     17 C           3.6625    0.1322   17.5865 C.3     1  UNL1        0.0759
     18 N           3.5511   -0.0435   19.0720 N.3     1  UNL1       -0.2726
     19 C           4.4993    0.6753   19.9855 C.3     1  UNL1        0.0721
     20 C           4.3878    0.4997   21.4709 C.3     1  UNL1        0.0178
     21 C           3.3281   -0.3947   22.0430 C.3     1  UNL1        0.0087
     22 C           2.3800   -1.1135   21.1296 C.3     1  UNL1        0.0178
     23 C           2.4914   -0.9378   19.6440 C.3     1  UNL1        0.0721
     24 C           3.2167   -0.5703   23.5285 C.3     1  UNL1        0.0453
     25 C           2.2631    0.2797   24.3148 C.ar    1  UNL1        0.0541
     26 C           1.3190    1.2992   23.7497 C.ar    1  UNL1        0.1131
     27 N           0.5586    1.9090   24.8899 N.ar    1  UNL1       -0.2229
     28 C           1.0328    1.2663   26.1597 C.ar    1  UNL1        0.1748
     29 N           2.0862    0.2594   25.8042 N.ar    1  UNL1       -0.3382
     30 H           2.5756   -0.3141   26.4373 H       1  UNL1        0.1672
@<TRIPOS>BOND
     1     3     4   ar
     2     4     5   ar
     3     5     9    1
     4     9    10    1
     5    10    11    1
     6    11    12    1
     7    12    13    1
     8    13    14    1
     9    14    15    1
    10     5     6   ar
    11     6     7   ar
    12     7     2    1
    13     2     1    1
    14     1    16    1
    15    16    17    1
    16    17    18    1
    17    18    19    1
    18    19    20    1
    19    20    21    1
    20    21    24    1
    21    24    25    1
    22    25    26   ar
    23    26    27   ar
    24    27    28   ar
    25    28    29   ar
    26    21    22    1
    27    22    23    1
    28     7     8   ar
    29     8     3   ar
    30    15    10    1
    31    23    18    1
    32    29    25   ar
    33    29    30    1
@<TRIPOS>MOLECULE
*****
 30 33 0 0 0
SMALL
GASTEIGER

@<TRIPOS>ATOM
      1 C           6.4422   -2.3000   18.4136 C.3     1  UNL1        0.2068
      2 O           6.5984   -1.4218   17.2077 O.3     1  UNL1       -0.4754
      3 C           6.5451    2.4529   16.3509 C.ar    1  UNL1        0.0028
      4 C           5.7639    2.9896   17.5136 C.ar    1  UNL1       -0.0027
      5 C           5.2609    2.0558   18.5743 C.ar    1  UNL1       -0.0031
      6 C           5.5391    0.5854   18.4723 C.ar    1  UNL1        0.0340
      7 C           6.3202    0.0487   17.3097 C.ar    1  UNL1        0.1383
      8 C           6.8232    0.9825   16.2490 C.ar    1  UNL1        0.0369
      9 C           4.4797    2.5925   19.7369 C.3     1  UNL1        0.0992
     10 N           2.9809    2.5357   19.7237 N.3     1  UNL1       -0.2690
     11 C           2.2016    3.0166   20.9118 C.3     1  UNL1        0.0724
     12 C           0.7027    2.9597   20.8985 C.3     1  UNL1        0.0174
     13 C          -0.0169    2.4221   19.6972 C.3     1  UNL1        0.0029
     14 C           0.7624    1.9413   18.5091 C.3     1  UNL1        0.0174
     15 C           2.2613    1.9981   18.5224 C.3     1  UNL1        0.0724
     16 C           5.3913   -3.3704   18.4309 C.3     1  UNL1        0.0646
     17 C           3.9853   -3.0345   18.8310 C.3     1  UNL1        0.0759
     18 N           3.7177   -2.3820   20.1548 N.3     1  UNL1       -0.2726
     19 C           2.7751   -1.2183   20.2405 C.3     1  UNL1        0.0721
     20 C           2.5075   -0.5658   21.5644 C.3     1  UNL1        0.0178
     21 C           3.1826   -1.0769   22.8025 C.3     1  UNL1        0.0087
     22 C           4.1252   -2.2405   22.7168 C.3     1  UNL1        0.0178
     23 C           4.3928   -2.8931   21.3930 C.3     1  UNL1        0.0721
     24 C           2.9151   -0.4244   24.1264 C.3     1  UNL1        0.0453
     25 C           3.8187   -0.6958   25.2926 C.ar    1  UNL1        0.0541
     26 C           5.0891    0.0347   25.6123 C.ar    1  UNL1        0.1131
     27 N           5.6660   -0.5633   26.8610 N.ar    1  UNL1       -0.2229
     28 C           4.7521   -1.6635   27.3132 C.ar    1  UNL1        0.1748
     29 N           3.6104   -1.7453   26.3438 N.ar    1  UNL1       -0.3382
     30 H           2.8566   -2.3770   26.3895 H       1  UNL1        0.1672
@<TRIPOS>BOND
     1     3     4   ar
     2     4     5   ar
     3     5     9    1
     4     9    10    1
     5    10    11    1
     6    11    12    1
     7    12    13    1
     8    13    14    1
     9    14    15    1
    10     5     6   ar
    11     6     7   ar
    12     7     2    1
    13     2     1    1
    14     1    16    1
    15    16    17    1
    16    17    18    1
    17    18    19    1
    18    19    20    1
    19    20    21    1
    20    21    24    1
    21    24    25    1
    22    25    26   ar
    23    26    27   ar
    24    27    28   ar
    25    28    29   ar
    26    21    22    1
    27    22    23    1
    28     7     8   ar
    29     8     3   ar
    30    15    10    1
    31    23    18    1
    32    29    25   ar
    33    29    30    1
