@<TRIPOS>MOLECULE
*****
 35 39 0 0 0
SMALL
GASTEIGER

@<TRIPOS>ATOM
      1 C          -3.0860  -17.0563   23.7218 C.3     1  UNL1        0.0730
      2 N          -3.1151  -18.0920   22.6371 N.3     1  UNL1       -0.2726
      3 C          -1.9195  -18.7441   22.0083 C.3     1  UNL1        0.0721
      4 C          -2.4105  -19.7125   20.9734 C.3     1  UNL1        0.0190
      5 C          -3.9095  -19.6590   20.9626 C.3     1  UNL1        0.0201
      6 C          -4.0952  -20.6834   19.8827 C.3     1  UNL1        0.0061
      7 C          -5.2908  -20.0313   20.5115 C.3     1  UNL1        0.0237
      8 C          -4.3450  -18.6574   21.9908 C.3     1  UNL1        0.0724
      9 C          -6.7786  -19.8698   20.6141 C.ar    1  UNL1       -0.0225
     10 C          -7.5810  -19.5212   19.3956 C.ar    1  UNL1       -0.0043
     11 C          -9.0687  -19.3597   19.4982 C.ar    1  UNL1        0.0035
     12 C          -9.7540  -19.5468   20.8194 C.ar    1  UNL1        0.0714
     13 C          -8.9516  -19.8953   22.0378 C.ar    1  UNL1        0.0035
     14 C          -7.4639  -20.0568   21.9352 C.ar    1  UNL1       -0.0043
     15 C         -11.2417  -19.3852   20.9220 C.3     1  UNL1        0.4186
     16 F         -12.7295  -19.2237   21.0246 F       1  UNL1       -0.1659
     17 F         -11.2851  -20.4536   21.9740 F       1  UNL1       -0.1659
     18 F         -11.1983  -18.3169   19.8699 F       1  UNL1       -0.1659
     19 C          -3.9537  -17.2161   24.9349 C.3     1  UNL1        0.0294
     20 C          -4.7185  -16.0419   25.4700 C.3     1  UNL1        0.0666
     21 S          -5.4671  -15.1434   24.5308 S.3     1  UNL1       -0.0756
     22 C          -8.3077  -15.9732   25.9063 C.3     1  UNL1        0.1340
     23 N          -7.9852  -16.0359   24.4427 N.ar    1  UNL1       -0.2884
     24 C          -6.6795  -15.6545   23.8105 C.ar    1  UNL1        0.1932
     25 N          -6.7990  -15.8739   22.3314 N.ar    1  UNL1       -0.1221
     26 N          -8.1786  -16.3909   22.0496 N.ar    1  UNL1       -0.1282
     27 C          -8.9117  -16.4911   23.3544 C.ar    1  UNL1        0.1683
     28 C         -10.3235  -16.9635   23.5386 C.ar    1  UNL1        0.0551
     29 C         -11.4465  -16.2642   22.8316 C.ar    1  UNL1        0.0069
     30 C         -12.8583  -16.7366   23.0158 C.ar    1  UNL1        0.0298
     31 C         -13.1468  -17.9083   23.9070 C.ar    1  UNL1        0.1492
     32 N         -12.0237  -18.6075   24.6139 N.ar    1  UNL1       -0.2334
     33 C         -10.6120  -18.1350   24.4297 C.ar    1  UNL1        0.1026
     34 C         -14.5585  -18.3806   24.0911 C.1     1  UNL1        0.1198
     35 N         -15.9703  -18.8530   24.2753 N.1     1  UNL1       -0.1893
@<TRIPOS>BOND
     1    22    23    1
     2    23    24   ar
     3    24    21    1
     4    21    20    1
     5    20    19    1
     6    19     1    1
     7     1     2    1
     8     2     3    1
     9     3     4    1
    10     5     4    1
    11     5     6    1
    12     6     7    1
    13     7     9    1
    14     9    10   ar
    15    10    11   ar
    16    11    12   ar
    17    12    15    1
    18    15    16    1
    19    15    17    1
    20    15    18    1
    21    12    13   ar
    22    13    14   ar
    23     5     8    1
    24    24    25   ar
    25    25    26   ar
    26    26    27   ar
    27    27    28    1
    28    28    29   ar
    29    29    30   ar
    30    30    31   ar
    31    31    34    1
    32    34    35    3
    33    31    32   ar
    34    32    33   ar
    35    27    23   ar
    36    33    28   ar
    37     8     2    1
    38     7     5    1
    39    14     9   ar
@<TRIPOS>MOLECULE
*****
 35 39 0 0 0
SMALL
GASTEIGER

@<TRIPOS>ATOM
      1 C         -10.8998  -18.6315   24.6442 C.3     1  UNL1        0.0730
      2 N         -11.0033  -18.7773   23.1549 N.3     1  UNL1       -0.2726
      3 C         -12.2627  -18.6842   22.3453 C.3     1  UNL1        0.0721
      4 C         -11.9033  -18.8912   20.9038 C.3     1  UNL1        0.0190
      5 C         -10.4219  -19.1122   20.8224 C.3     1  UNL1        0.0201
      6 C         -10.3700  -19.2803   19.3328 C.3     1  UNL1        0.0061
      7 C          -9.1106  -19.3734   20.1424 C.3     1  UNL1        0.0237
      8 C          -9.8657  -19.0418   22.2137 C.3     1  UNL1        0.0724
      9 C          -7.6266  -19.5780   20.2172 C.ar    1  UNL1       -0.0225
     10 C          -6.7224  -18.4149   20.4996 C.ar    1  UNL1       -0.0043
     11 C          -5.2383  -18.6194   20.5745 C.ar    1  UNL1        0.0035
     12 C          -4.6584  -19.9871   20.3668 C.ar    1  UNL1        0.0714
     13 C          -5.5625  -21.1502   20.0844 C.ar    1  UNL1        0.0035
     14 C          -7.0466  -20.9457   20.0096 C.ar    1  UNL1       -0.0043
     15 C          -3.1743  -20.1917   20.4416 C.3     1  UNL1        0.4186
     16 F          -1.6901  -20.3963   20.5165 F       1  UNL1       -0.1659
     17 F          -3.0596  -19.8955   18.9757 F       1  UNL1       -0.1659
     18 F          -3.2890  -20.4879   21.9076 F       1  UNL1       -0.1659
     19 C          -9.5868  -18.2699   25.2729 C.3     1  UNL1        0.0294
     20 C          -9.5229  -17.1813   26.3029 C.3     1  UNL1        0.0666
     21 S          -8.8245  -15.8916   25.9887 S.3     1  UNL1       -0.0756
     22 C          -7.3128  -16.7078   23.2142 C.3     1  UNL1        0.1340
     23 N          -6.6480  -16.2538   24.4798 N.ar    1  UNL1       -0.2884
     24 C          -7.3428  -15.8786   25.7551 C.ar    1  UNL1        0.1932
     25 N          -6.2959  -15.4882   26.7559 N.ar    1  UNL1       -0.1221
     26 N          -4.9540  -15.6221   26.0992 N.ar    1  UNL1       -0.1282
     27 C          -5.1715  -16.0953   24.6924 C.ar    1  UNL1        0.1683
     28 C          -4.1007  -16.3629   23.6767 C.ar    1  UNL1        0.0551
     29 C          -3.3055  -17.6331   23.7421 C.ar    1  UNL1        0.0069
     30 C          -2.2347  -17.9007   22.7264 C.ar    1  UNL1        0.0298
     31 C          -1.9591  -16.8981   21.6452 C.ar    1  UNL1        0.1492
     32 N          -2.7543  -15.6279   21.5798 N.ar    1  UNL1       -0.2334
     33 C          -3.8251  -15.3603   22.5956 C.ar    1  UNL1        0.1026
     34 C          -0.8883  -17.1657   20.6295 C.1     1  UNL1        0.1198
     35 N           0.1825  -17.4333   19.6137 N.1     1  UNL1       -0.1893
@<TRIPOS>BOND
     1    22    23    1
     2    23    24   ar
     3    24    21    1
     4    21    20    1
     5    20    19    1
     6    19     1    1
     7     1     2    1
     8     2     3    1
     9     3     4    1
    10     5     4    1
    11     5     6    1
    12     6     7    1
    13     7     9    1
    14     9    10   ar
    15    10    11   ar
    16    11    12   ar
    17    12    15    1
    18    15    16    1
    19    15    17    1
    20    15    18    1
    21    12    13   ar
    22    13    14   ar
    23     5     8    1
    24    24    25   ar
    25    25    26   ar
    26    26    27   ar
    27    27    28    1
    28    28    29   ar
    29    29    30   ar
    30    30    31   ar
    31    31    34    1
    32    34    35    3
    33    31    32   ar
    34    32    33   ar
    35    27    23   ar
    36    33    28   ar
    37     8     2    1
    38     7     5    1
    39    14     9   ar
@<TRIPOS>MOLECULE
*****
 35 39 0 0 0
SMALL
GASTEIGER

@<TRIPOS>ATOM
      1 C          -1.0438    4.7582   18.0765 C.3     1  UNL1        0.0730
      2 N          -2.4848    4.3454   18.0196 N.3     1  UNL1       -0.2726
      3 C          -3.2466    3.9715   16.7827 C.3     1  UNL1        0.0721
      4 C          -4.6496    3.6291   17.1883 C.3     1  UNL1        0.0190
      5 C          -4.7548    3.7913   18.6758 C.3     1  UNL1        0.0201
      6 C          -6.1989    3.3978   18.7747 C.3     1  UNL1        0.0061
      7 C          -5.4370    3.7716   20.0115 C.3     1  UNL1        0.0237
      8 C          -3.4169    4.2340   19.1895 C.3     1  UNL1        0.0724
      9 C          -5.3911    3.9761   21.4968 C.ar    1  UNL1       -0.0225
     10 C          -4.8290    2.9054   22.3843 C.ar    1  UNL1       -0.0043
     11 C          -4.7830    3.1098   23.8695 C.ar    1  UNL1        0.0035
     12 C          -5.2991    4.3851   24.4673 C.ar    1  UNL1        0.0714
     13 C          -5.8611    5.4559   23.5799 C.ar    1  UNL1        0.0035
     14 C          -5.9071    5.2514   22.0946 C.ar    1  UNL1       -0.0043
     15 C          -5.2531    4.5896   25.9526 C.3     1  UNL1        0.4186
     16 F          -5.2071    4.7941   27.4379 F       1  UNL1       -0.1659
     17 F          -4.0534    3.6933   26.0388 F       1  UNL1       -0.1659
     18 F          -6.4527    5.4859   25.8663 F       1  UNL1       -0.1659
     19 C          -0.5941    5.7748   19.0836 C.3     1  UNL1        0.0294
     20 C           0.3627    5.3821   20.1700 C.3     1  UNL1        0.0666
     21 S          -0.0597    4.4005   21.2226 S.3     1  UNL1       -0.0756
     22 C           2.8192    2.8737   21.3982 C.3     1  UNL1        0.1340
     23 N           1.4974    2.2314   21.0974 N.ar    1  UNL1       -0.2884
     24 C           0.1742    2.9332   21.0168 C.ar    1  UNL1        0.1932
     25 N          -0.8742    1.9101   20.6941 N.ar    1  UNL1       -0.1221
     26 N          -0.1989    0.5759   20.5753 N.ar    1  UNL1       -0.1282
     27 C           1.2669    0.7745   20.8246 C.ar    1  UNL1        0.1683
     28 C           2.3175   -0.2959   20.8046 C.ar    1  UNL1        0.0551
     29 C           2.8821   -0.8169   22.0929 C.ar    1  UNL1        0.0069
     30 C           3.9328   -1.8872   22.0729 C.ar    1  UNL1        0.0298
     31 C           4.4189   -2.4366   20.7644 C.ar    1  UNL1        0.1492
     32 N           3.8543   -1.9156   19.4761 N.ar    1  UNL1       -0.2334
     33 C           2.8036   -0.8452   19.4962 C.ar    1  UNL1        0.1026
     34 C           5.4695   -3.5069   20.7444 C.1     1  UNL1        0.1198
     35 N           6.5202   -4.5773   20.7244 N.1     1  UNL1       -0.1893
@<TRIPOS>BOND
     1    22    23    1
     2    23    24   ar
     3    24    21    1
     4    21    20    1
     5    20    19    1
     6    19     1    1
     7     1     2    1
     8     2     3    1
     9     3     4    1
    10     5     4    1
    11     5     6    1
    12     6     7    1
    13     7     9    1
    14     9    10   ar
    15    10    11   ar
    16    11    12   ar
    17    12    15    1
    18    15    16    1
    19    15    17    1
    20    15    18    1
    21    12    13   ar
    22    13    14   ar
    23     5     8    1
    24    24    25   ar
    25    25    26   ar
    26    26    27   ar
    27    27    28    1
    28    28    29   ar
    29    29    30   ar
    30    30    31   ar
    31    31    34    1
    32    34    35    3
    33    31    32   ar
    34    32    33   ar
    35    27    23   ar
    36    33    28   ar
    37     8     2    1
    38     7     5    1
    39    14     9   ar
@<TRIPOS>MOLECULE
*****
 35 39 0 0 0
SMALL
GASTEIGER

@<TRIPOS>ATOM
      1 C           6.2990   -2.8611   26.8094 C.3     1  UNL1        0.0730
      2 N           6.5733   -3.8272   27.9236 N.3     1  UNL1       -0.2726
      3 C           6.9444   -5.2720   27.7664 C.3     1  UNL1        0.0721
      4 C           7.1251   -5.8557   29.1363 C.3     1  UNL1        0.0190
      5 C           6.8657   -4.7717   30.1401 C.3     1  UNL1        0.0201
      6 C           7.1114   -5.6191   31.3531 C.3     1  UNL1        0.0061
      7 C           6.7404   -4.1743   31.5103 C.3     1  UNL1        0.0237
      8 C           6.5247   -3.5179   29.3906 C.3     1  UNL1        0.0724
      9 C           6.4537   -2.9952   32.3921 C.ar    1  UNL1       -0.0225
     10 C           7.5412   -2.0104   32.7045 C.ar    1  UNL1       -0.0043
     11 C           7.2546   -0.8313   33.5863 C.ar    1  UNL1        0.0035
     12 C           5.8805   -0.6370   34.1556 C.ar    1  UNL1        0.0714
     13 C           4.7930   -1.6217   33.8431 C.ar    1  UNL1        0.0035
     14 C           5.0796   -2.8008   32.9613 C.ar    1  UNL1       -0.0043
     15 C           5.5939    0.5421   35.0374 C.3     1  UNL1        0.4186
     16 F           5.3072    1.7213   35.9192 F       1  UNL1       -0.1659
     17 F           5.9921    1.4691   33.9273 F       1  UNL1       -0.1659
     18 F           5.1957   -0.3848   36.1474 F       1  UNL1       -0.1659
     19 C           5.6364   -1.5475   27.1017 C.3     1  UNL1        0.0294
     20 C           4.2096   -1.3207   26.6979 C.3     1  UNL1        0.0666
     21 S           3.5357   -0.0207   27.0231 S.3     1  UNL1       -0.0756
     22 C           3.9997    2.3466   29.2209 C.3     1  UNL1        0.1340
     23 N           3.0092    1.2252   29.3286 N.ar    1  UNL1       -0.2884
     24 C           2.7959    0.1371   28.3184 C.ar    1  UNL1        0.1932
     25 N           1.7130   -0.7655   28.8308 N.ar    1  UNL1       -0.1221
     26 N           1.2570   -0.2352   30.1578 N.ar    1  UNL1       -0.1282
     27 C           2.0580    0.9951   30.4655 C.ar    1  UNL1        0.1683
     28 C           1.9303    1.8460   31.6942 C.ar    1  UNL1        0.0551
     29 C           2.6403    1.4529   32.9557 C.ar    1  UNL1        0.0069
     30 C           2.5126    2.3037   34.1845 C.ar    1  UNL1        0.0298
     31 C           1.6749    3.5476   34.1516 C.ar    1  UNL1        0.1492
     32 N           0.9649    3.9407   32.8901 N.ar    1  UNL1       -0.2334
     33 C           1.0926    3.0898   31.6614 C.ar    1  UNL1        0.1026
     34 C           1.5472    4.3985   35.3803 C.1     1  UNL1        0.1198
     35 N           1.4195    5.2493   36.6091 N.1     1  UNL1       -0.1893
@<TRIPOS>BOND
     1    22    23    1
     2    23    24   ar
     3    24    21    1
     4    21    20    1
     5    20    19    1
     6    19     1    1
     7     1     2    1
     8     2     3    1
     9     3     4    1
    10     5     4    1
    11     5     6    1
    12     6     7    1
    13     7     9    1
    14     9    10   ar
    15    10    11   ar
    16    11    12   ar
    17    12    15    1
    18    15    16    1
    19    15    17    1
    20    15    18    1
    21    12    13   ar
    22    13    14   ar
    23     5     8    1
    24    24    25   ar
    25    25    26   ar
    26    26    27   ar
    27    27    28    1
    28    28    29   ar
    29    29    30   ar
    30    30    31   ar
    31    31    34    1
    32    34    35    3
    33    31    32   ar
    34    32    33   ar
    35    27    23   ar
    36    33    28   ar
    37     8     2    1
    38     7     5    1
    39    14     9   ar
@<TRIPOS>MOLECULE
*****
 35 39 0 0 0
SMALL
GASTEIGER

@<TRIPOS>ATOM
      1 C           8.6302   -3.6823   22.8196 C.3     1  UNL1        0.0730
      2 N           8.5686   -5.0273   23.4807 N.3     1  UNL1       -0.2726
      3 C           8.8379   -6.3472   22.8210 C.3     1  UNL1        0.0721
      4 C           8.6626   -7.4242   23.8503 C.3     1  UNL1        0.0190
      5 C           8.2849   -6.7699   25.1462 C.3     1  UNL1        0.0201
      6 C           8.1841   -8.0391   25.9392 C.3     1  UNL1        0.0061
      7 C           7.9147   -6.7192   26.5989 C.3     1  UNL1        0.0237
      8 C           8.2268   -5.2885   24.9177 C.3     1  UNL1        0.0724
      9 C           7.5455   -5.9278   27.8185 C.ar    1  UNL1       -0.0225
     10 C           7.9215   -6.4305   29.1809 C.ar    1  UNL1       -0.0043
     11 C           7.5523   -5.6391   30.4005 C.ar    1  UNL1        0.0035
     12 C           6.8072   -4.3451   30.2577 C.ar    1  UNL1        0.0714
     13 C           6.4312   -3.8425   28.8953 C.ar    1  UNL1        0.0035
     14 C           6.8004   -4.6338   27.6757 C.ar    1  UNL1       -0.0043
     15 C           6.4380   -3.5538   31.4773 C.3     1  UNL1        0.4186
     16 F           6.0688   -2.7625   32.6970 F       1  UNL1       -0.1659
     17 F           6.3794   -2.3046   30.6490 F       1  UNL1       -0.1659
     18 F           6.4965   -4.8030   32.3056 F       1  UNL1       -0.1659
     19 C           7.9653   -3.4679   21.4922 C.3     1  UNL1        0.0294
     20 C           8.7956   -3.3366   20.2498 C.3     1  UNL1        0.0666
     21 S           8.5378   -2.2125   19.2908 S.3     1  UNL1       -0.0756
     22 C           6.3365   -0.4530   20.9365 C.3     1  UNL1        0.1340
     23 N           6.1253   -1.1043   19.6018 N.ar    1  UNL1       -0.2884
     24 C           7.1371   -1.9130   18.8454 C.ar    1  UNL1        0.1932
     25 N           6.5024   -2.3697   17.5653 N.ar    1  UNL1       -0.1221
     26 N           5.0983   -1.8433   17.5306 N.ar    1  UNL1       -0.1282
     27 C           4.8651   -1.0612   18.7892 C.ar    1  UNL1        0.1683
     28 C           3.5950   -0.3592   19.1686 C.ar    1  UNL1        0.0551
     29 C           2.5243   -1.0977   19.9159 C.ar    1  UNL1        0.0069
     30 C           1.2542   -0.3958   20.2953 C.ar    1  UNL1        0.0298
     31 C           1.0547    1.0447   19.9273 C.ar    1  UNL1        0.1492
     32 N           2.1253    1.7832   19.1801 N.ar    1  UNL1       -0.2334
     33 C           3.3955    1.0812   18.8007 C.ar    1  UNL1        0.1026
     34 C          -0.2155    1.7466   20.3067 C.1     1  UNL1        0.1198
     35 N          -1.4857    2.4486   20.6861 N.1     1  UNL1       -0.1893
@<TRIPOS>BOND
     1    22    23    1
     2    23    24   ar
     3    24    21    1
     4    21    20    1
     5    20    19    1
     6    19     1    1
     7     1     2    1
     8     2     3    1
     9     3     4    1
    10     5     4    1
    11     5     6    1
    12     6     7    1
    13     7     9    1
    14     9    10   ar
    15    10    11   ar
    16    11    12   ar
    17    12    15    1
    18    15    16    1
    19    15    17    1
    20    15    18    1
    21    12    13   ar
    22    13    14   ar
    23     5     8    1
    24    24    25   ar
    25    25    26   ar
    26    26    27   ar
    27    27    28    1
    28    28    29   ar
    29    29    30   ar
    30    30    31   ar
    31    31    34    1
    32    34    35    3
    33    31    32   ar
    34    32    33   ar
    35    27    23   ar
    36    33    28   ar
    37     8     2    1
    38     7     5    1
    39    14     9   ar
@<TRIPOS>MOLECULE
*****
 35 39 0 0 0
SMALL
GASTEIGER

@<TRIPOS>ATOM
      1 C           4.7634   -1.9123   24.6141 C.3     1  UNL1        0.0730
      2 N           4.6250   -2.4775   23.2315 N.3     1  UNL1       -0.2726
      3 C           5.2269   -3.7602   22.7391 C.3     1  UNL1        0.0721
      4 C           4.8343   -3.9346   21.3020 C.3     1  UNL1        0.0190
      5 C           3.9898   -2.7598   20.9062 C.3     1  UNL1        0.0201
      6 C           3.7639   -3.1991   19.4899 C.3     1  UNL1        0.0061
      7 C           3.1619   -1.9165   19.9823 C.3     1  UNL1        0.0237
      8 C           3.8604   -1.8593   22.0988 C.3     1  UNL1        0.0724
      9 C           2.3365   -0.6891   19.7333 C.ar    1  UNL1       -0.0225
     10 C           1.0006   -0.5360   20.3982 C.ar    1  UNL1       -0.0043
     11 C           0.1752    0.6914   20.1491 C.ar    1  UNL1        0.0035
     12 C           0.6856    1.7658   19.2352 C.ar    1  UNL1        0.0714
     13 C           2.0215    1.6127   18.5703 C.ar    1  UNL1        0.0035
     14 C           2.8469    0.3853   18.8194 C.ar    1  UNL1       -0.0043
     15 C          -0.1398    2.9932   18.9862 C.3     1  UNL1        0.4186
     16 F          -0.9653    4.2207   18.7371 F       1  UNL1       -0.1659
     17 F          -0.2012    3.2515   20.4625 F       1  UNL1       -0.1659
     18 F          -0.0785    2.7349   17.5099 F       1  UNL1       -0.1659
     19 C           6.0846   -1.9757   25.3215 C.3     1  UNL1        0.0294
     20 C           6.4171   -3.1562   26.1852 C.3     1  UNL1        0.0666
     21 S           7.4590   -3.0315   27.2570 S.3     1  UNL1       -0.0756
     22 C           6.5403   -0.7418   29.3932 C.3     1  UNL1        0.1340
     23 N           6.6674   -2.2098   29.6743 N.ar    1  UNL1       -0.2884
     24 C           7.0896   -3.2622   28.6924 C.ar    1  UNL1        0.1932
     25 N           7.0777   -4.5859   29.3979 N.ar    1  UNL1       -0.1221
     26 N           6.6481   -4.3516   30.8158 N.ar    1  UNL1       -0.1282
     27 C           6.3944   -2.8831   30.9867 C.ar    1  UNL1        0.1683
     28 C           5.9466   -2.2066   32.2484 C.ar    1  UNL1        0.0551
     29 C           6.8707   -1.2667   32.9642 C.ar    1  UNL1        0.0069
     30 C           6.4228   -0.5902   34.2258 C.ar    1  UNL1        0.0298
     31 C           5.0507   -0.8538   34.7717 C.ar    1  UNL1        0.1492
     32 N           4.1265   -1.7938   34.0559 N.ar    1  UNL1       -0.2334
     33 C           4.5745   -2.4702   32.7942 C.ar    1  UNL1        0.1026
     34 C           4.6028   -0.1774   36.0333 C.1     1  UNL1        0.1198
     35 N           4.1549    0.4991   37.2950 N.1     1  UNL1       -0.1893
@<TRIPOS>BOND
     1    22    23    1
     2    23    24   ar
     3    24    21    1
     4    21    20    1
     5    20    19    1
     6    19     1    1
     7     1     2    1
     8     2     3    1
     9     3     4    1
    10     5     4    1
    11     5     6    1
    12     6     7    1
    13     7     9    1
    14     9    10   ar
    15    10    11   ar
    16    11    12   ar
    17    12    15    1
    18    15    16    1
    19    15    17    1
    20    15    18    1
    21    12    13   ar
    22    13    14   ar
    23     5     8    1
    24    24    25   ar
    25    25    26   ar
    26    26    27   ar
    27    27    28    1
    28    28    29   ar
    29    29    30   ar
    30    30    31   ar
    31    31    34    1
    32    34    35    3
    33    31    32   ar
    34    32    33   ar
    35    27    23   ar
    36    33    28   ar
    37     8     2    1
    38     7     5    1
    39    14     9   ar
@<TRIPOS>MOLECULE
*****
 35 39 0 0 0
SMALL
GASTEIGER

@<TRIPOS>ATOM
      1 C          -1.1293    5.5279   18.1498 C.3     1  UNL1        0.0730
      2 N          -2.4601    4.8407   18.0684 N.3     1  UNL1       -0.2726
      3 C          -3.0963    4.2956   16.8241 C.3     1  UNL1        0.0721
      4 C          -4.4178    3.6960   17.2038 C.3     1  UNL1        0.0190
      5 C          -4.5983    3.8703   18.6826 C.3     1  UNL1        0.0201
      6 C          -5.9407    3.2051   18.7563 C.3     1  UNL1        0.0061
      7 C          -5.3045    3.7501   20.0005 C.3     1  UNL1        0.0237
      8 C          -3.3884    4.5778   19.2170 C.3     1  UNL1        0.0724
      9 C          -5.3449    3.9954   21.4798 C.ar    1  UNL1       -0.0225
     10 C          -5.8847    5.2902   22.0109 C.ar    1  UNL1       -0.0043
     11 C          -5.9251    5.5355   23.4901 C.ar    1  UNL1        0.0035
     12 C          -5.4256    4.4859   24.4383 C.ar    1  UNL1        0.0714
     13 C          -4.8858    3.1911   23.9072 C.ar    1  UNL1        0.0035
     14 C          -4.8454    2.9459   22.4279 C.ar    1  UNL1       -0.0043
     15 C          -5.4660    4.7312   25.9175 C.3     1  UNL1        0.4186
     16 F          -5.5064    4.9765   27.3968 F       1  UNL1       -0.1659
     17 F          -6.5536    5.7451   25.7197 F       1  UNL1       -0.1659
     18 F          -4.3784    3.7173   26.1153 F       1  UNL1       -0.1659
     19 C           0.1347    4.7358   17.9921 C.3     1  UNL1        0.0294
     20 C           0.3804    3.5352   18.8572 C.3     1  UNL1        0.0666
     21 S           0.5515    2.1826   18.2319 S.3     1  UNL1       -0.0756
     22 C           3.4675    0.7435   17.9578 C.3     1  UNL1        0.1340
     23 N           2.3884    0.3709   18.9308 N.ar    1  UNL1       -0.2884
     24 C           1.0480    1.0324   19.0568 C.ar    1  UNL1        0.1932
     25 N           0.2914    0.3418   20.1525 N.ar    1  UNL1       -0.1221
     26 N           1.1641   -0.7466   20.7037 N.ar    1  UNL1       -0.1282
     27 C           2.4602   -0.7286   19.9487 C.ar    1  UNL1        0.1683
     28 C           3.6237   -1.6486   20.1723 C.ar    1  UNL1        0.0551
     29 C           3.6028   -3.0363   19.6032 C.ar    1  UNL1        0.0069
     30 C           4.7662   -3.9562   19.8268 C.ar    1  UNL1        0.0298
     31 C           5.9506   -3.4884   20.6196 C.ar    1  UNL1        0.1492
     32 N           5.9716   -2.1007   21.1887 N.ar    1  UNL1       -0.2334
     33 C           4.8080   -1.1808   20.9650 C.ar    1  UNL1        0.1026
     34 C           7.1141   -4.4083   20.8432 C.1     1  UNL1        0.1198
     35 N           8.2776   -5.3283   21.0668 N.1     1  UNL1       -0.1893
@<TRIPOS>BOND
     1    22    23    1
     2    23    24   ar
     3    24    21    1
     4    21    20    1
     5    20    19    1
     6    19     1    1
     7     1     2    1
     8     2     3    1
     9     3     4    1
    10     5     4    1
    11     5     6    1
    12     6     7    1
    13     7     9    1
    14     9    10   ar
    15    10    11   ar
    16    11    12   ar
    17    12    15    1
    18    15    16    1
    19    15    17    1
    20    15    18    1
    21    12    13   ar
    22    13    14   ar
    23     5     8    1
    24    24    25   ar
    25    25    26   ar
    26    26    27   ar
    27    27    28    1
    28    28    29   ar
    29    29    30   ar
    30    30    31   ar
    31    31    34    1
    32    34    35    3
    33    31    32   ar
    34    32    33   ar
    35    27    23   ar
    36    33    28   ar
    37     8     2    1
    38     7     5    1
    39    14     9   ar
@<TRIPOS>MOLECULE
*****
 35 39 0 0 0
SMALL
GASTEIGER

@<TRIPOS>ATOM
      1 C           6.8592   -4.8926   25.4527 C.3     1  UNL1        0.0730
      2 N           7.5004   -4.7555   24.1036 N.3     1  UNL1       -0.2726
      3 C           8.8453   -5.2892   23.7083 C.3     1  UNL1        0.0721
      4 C           9.0853   -4.9242   22.2733 C.3     1  UNL1        0.0190
      5 C           7.8887   -4.1649   21.7818 C.3     1  UNL1        0.0201
      6 C           8.4013   -3.9492   20.3887 C.3     1  UNL1        0.0061
      7 C           7.0563   -3.4155   20.7840 C.3     1  UNL1        0.0237
      8 C           6.9092   -4.0606   22.9130 C.3     1  UNL1        0.0724
      9 C           5.7993   -2.6747   20.4362 C.ar    1  UNL1       -0.0225
     10 C           5.7862   -1.1747   20.4436 C.ar    1  UNL1       -0.0043
     11 C           4.5292   -0.4339   20.0958 C.ar    1  UNL1        0.0035
     12 C           3.2852   -1.1930   19.7406 C.ar    1  UNL1        0.0714
     13 C           3.2982   -2.6930   19.7332 C.ar    1  UNL1        0.0035
     14 C           4.5553   -3.4338   20.0810 C.ar    1  UNL1       -0.0043
     15 C           2.0281   -0.4522   19.3928 C.3     1  UNL1        0.4186
     16 F           0.7710    0.2886   19.0449 F       1  UNL1       -0.1659
     17 F           1.2984   -1.1784   20.4837 F       1  UNL1       -0.1659
     18 F           2.7579    0.2739   18.3019 F       1  UNL1       -0.1659
     19 C           7.1529   -6.0919   26.3043 C.3     1  UNL1        0.0294
     20 C           8.0873   -5.9723   27.4717 C.3     1  UNL1        0.0666
     21 S           7.5414   -5.9304   28.8681 S.3     1  UNL1       -0.0756
     22 C           6.9250   -5.3217   32.0144 C.3     1  UNL1        0.1340
     23 N           6.7368   -4.3617   30.8773 N.ar    1  UNL1       -0.2884
     24 C           7.0201   -4.6415   29.4312 C.ar    1  UNL1        0.1932
     25 N           6.6907   -3.4060   28.6468 N.ar    1  UNL1       -0.1221
     26 N           6.2038   -2.3627   29.6082 N.ar    1  UNL1       -0.1282
     27 C           6.2322   -2.9533   30.9868 C.ar    1  UNL1        0.1683
     28 C           5.8273   -2.2577   32.2526 C.ar    1  UNL1        0.0551
     29 C           6.7746   -1.3065   32.9217 C.ar    1  UNL1        0.0069
     30 C           6.3696   -0.6108   34.1875 C.ar    1  UNL1        0.0298
     31 C           5.0172   -0.8665   34.7840 C.ar    1  UNL1        0.1492
     32 N           4.0699   -1.8176   34.1148 N.ar    1  UNL1       -0.2334
     33 C           4.4749   -2.5132   32.8491 C.ar    1  UNL1        0.1026
     34 C           4.6122   -0.1708   36.0497 C.1     1  UNL1        0.1198
     35 N           4.2073    0.5248   37.3155 N.1     1  UNL1       -0.1893
@<TRIPOS>BOND
     1    22    23    1
     2    23    24   ar
     3    24    21    1
     4    21    20    1
     5    20    19    1
     6    19     1    1
     7     1     2    1
     8     2     3    1
     9     3     4    1
    10     5     4    1
    11     5     6    1
    12     6     7    1
    13     7     9    1
    14     9    10   ar
    15    10    11   ar
    16    11    12   ar
    17    12    15    1
    18    15    16    1
    19    15    17    1
    20    15    18    1
    21    12    13   ar
    22    13    14   ar
    23     5     8    1
    24    24    25   ar
    25    25    26   ar
    26    26    27   ar
    27    27    28    1
    28    28    29   ar
    29    29    30   ar
    30    30    31   ar
    31    31    34    1
    32    34    35    3
    33    31    32   ar
    34    32    33   ar
    35    27    23   ar
    36    33    28   ar
    37     8     2    1
    38     7     5    1
    39    14     9   ar
@<TRIPOS>MOLECULE
*****
 35 39 0 0 0
SMALL
GASTEIGER

@<TRIPOS>ATOM
      1 C          -1.1717    4.3476   18.0775 C.3     1  UNL1        0.0730
      2 N          -2.6485    4.0865   18.0445 N.3     1  UNL1       -0.2726
      3 C          -3.4675    3.8085   16.8190 C.3     1  UNL1        0.0721
      4 C          -4.8906    3.6078   17.2484 C.3     1  UNL1        0.0190
      5 C          -4.9512    3.7618   18.7392 C.3     1  UNL1        0.0201
      6 C          -6.4261    3.5183   18.8623 C.3     1  UNL1        0.0061
      7 C          -5.6071    3.7964   20.0878 C.3     1  UNL1        0.0237
      8 C          -3.5654    4.0577   19.2313 C.3     1  UNL1        0.0724
      9 C          -5.5129    3.9768   21.5739 C.ar    1  UNL1       -0.0225
     10 C          -6.1224    5.1840   22.2229 C.ar    1  UNL1       -0.0043
     11 C          -6.0282    5.3645   23.7090 C.ar    1  UNL1        0.0035
     12 C          -5.3245    4.3378   24.5461 C.ar    1  UNL1        0.0714
     13 C          -4.7151    3.1306   23.8971 C.ar    1  UNL1        0.0035
     14 C          -4.8092    2.9501   22.4110 C.ar    1  UNL1       -0.0043
     15 C          -5.2303    4.5183   26.0322 C.3     1  UNL1        0.4186
     16 F          -5.1362    4.6988   27.5184 F       1  UNL1       -0.1659
     17 F          -4.0619    3.5786   26.0723 F       1  UNL1       -0.1659
     18 F          -6.3988    5.4580   25.9921 F       1  UNL1       -0.1659
     19 C          -0.2058    3.2193   17.8679 C.3     1  UNL1        0.0294
     20 C           0.8255    2.9109   18.9126 C.3     1  UNL1        0.0666
     21 S           0.5389    1.8862   19.9698 S.3     1  UNL1       -0.0756
     22 C           1.6754    0.7497   22.8100 C.3     1  UNL1        0.1340
     23 N           0.6167    1.7987   22.6403 N.ar    1  UNL1       -0.2884
     24 C           0.0944    2.3211   21.3348 C.ar    1  UNL1        0.1932
     25 N          -0.9507    3.3548   21.6340 N.ar    1  UNL1       -0.1221
     26 N          -1.0741    3.4712   23.1243 N.ar    1  UNL1       -0.1282
     27 C          -0.1054    2.5095   23.7464 C.ar    1  UNL1        0.1683
     28 C           0.1042    2.2962   25.2162 C.ar    1  UNL1        0.0551
     29 C          -1.0764    2.1175   26.1241 C.ar    1  UNL1        0.0069
     30 C          -0.8667    1.9042   27.5940 C.ar    1  UNL1        0.0298
     31 C           0.5237    1.8694   28.1559 C.ar    1  UNL1        0.1492
     32 N           1.7043    2.0480   27.2480 N.ar    1  UNL1       -0.2334
     33 C           1.4946    2.2614   25.7781 C.ar    1  UNL1        0.1026
     34 C           0.7334    1.6560   29.6258 C.1     1  UNL1        0.1198
     35 N           0.9431    1.4426   31.0956 N.1     1  UNL1       -0.1893
@<TRIPOS>BOND
     1    22    23    1
     2    23    24   ar
     3    24    21    1
     4    21    20    1
     5    20    19    1
     6    19     1    1
     7     1     2    1
     8     2     3    1
     9     3     4    1
    10     5     4    1
    11     5     6    1
    12     6     7    1
    13     7     9    1
    14     9    10   ar
    15    10    11   ar
    16    11    12   ar
    17    12    15    1
    18    15    16    1
    19    15    17    1
    20    15    18    1
    21    12    13   ar
    22    13    14   ar
    23     5     8    1
    24    24    25   ar
    25    25    26   ar
    26    26    27   ar
    27    27    28    1
    28    28    29   ar
    29    29    30   ar
    30    30    31   ar
    31    31    34    1
    32    34    35    3
    33    31    32   ar
    34    32    33   ar
    35    27    23   ar
    36    33    28   ar
    37     8     2    1
    38     7     5    1
    39    14     9   ar
