@<TRIPOS>MOLECULE
*****
 32 36 0 0 0
SMALL
GASTEIGER

@<TRIPOS>ATOM
      1 C           7.8303   -4.8204   23.7909 C.3     1  UNL1        0.0933
      2 C           6.6039   -4.1309   23.2706 C.3     1  UNL1        0.0442
      3 C           6.6437   -3.4278   21.9462 C.3     1  UNL1        0.0953
      4 N           7.9098   -3.4142   21.1420 N.am    1  UNL1       -0.2794
      5 C           7.9497   -2.7111   19.8176 C.2     1  UNL1        0.2252
      6 O           9.2158   -2.6976   19.0134 O.2     1  UNL1       -0.2749
      7 C           9.1362   -4.1037   21.6623 C.3     1  UNL1        0.0953
      8 C           9.0964   -4.8067   22.9867 C.3     1  UNL1        0.0442
      9 C           8.2468   -8.5378   27.5176 C.3     1  UNL1        0.1351
     10 N           7.9819   -7.2321   26.8283 N.ar    1  UNL1       -0.2779
     11 C           8.1760   -6.9509   25.3677 C.ar    1  UNL1        0.3315
     12 O           8.6689   -7.9260   24.3400 O.2     1  UNL1       -0.2463
     13 N           7.7905   -5.5234   25.1154 N.ar    1  UNL1       -0.2817
     14 C           7.3583   -4.9224   26.4199 C.ar    1  UNL1        0.0796
     15 C           6.8722   -3.5499   26.7806 C.ar    1  UNL1        0.0188
     16 C           6.5045   -3.2335   28.2000 C.ar    1  UNL1        0.0016
     17 C           6.6228   -4.2896   29.2586 C.ar    1  UNL1        0.0016
     18 C           7.1088   -5.6620   28.8980 C.ar    1  UNL1        0.0188
     19 C           7.4766   -5.9784   27.4786 C.ar    1  UNL1        0.0798
     20 C           6.7233   -2.0217   19.2974 C.3     1  UNL1        0.0795
     21 C           6.4719   -0.5821   19.6354 C.3     1  UNL1        0.0264
     22 C           5.2454    0.1073   19.1151 C.3     1  UNL1        0.0729
     23 N           4.2704   -0.6429   18.2569 N.3     1  UNL1       -0.2689
     24 C           4.5218   -2.0826   17.9189 C.3     1  UNL1        0.0729
     25 C           5.7482   -2.7719   18.4392 C.3     1  UNL1        0.0264
     26 C           3.0440    0.0465   17.7367 C.3     1  UNL1        0.0992
     27 C           1.9490    0.4437   18.6818 C.ar    1  UNL1       -0.0031
     28 C           1.2583    1.7649   18.5166 C.ar    1  UNL1        0.0178
     29 C           0.1633    2.1621   19.4617 C.ar    1  UNL1        0.0986
     30 N          -0.2409    1.2381   20.5720 N.ar    1  UNL1       -0.2423
     31 C           0.4498   -0.0831   20.7372 C.ar    1  UNL1        0.0986
     32 C           1.5448   -0.4803   19.7921 C.ar    1  UNL1        0.0178
@<TRIPOS>BOND
     1     9    10    1
     2    10    11   ar
     3    11    12    2
     4    11    13   ar
     5    13     1    1
     6     1     2    1
     7     2     3    1
     8     3     4    1
     9     4     5   am
    10     5     6    2
    11     5    20    1
    12    20    21    1
    13    21    22    1
    14    22    23    1
    15    23    26    1
    16    26    27    1
    17    27    28   ar
    18    28    29   ar
    19    29    30   ar
    20    30    31   ar
    21    31    32   ar
    22    23    24    1
    23    24    25    1
    24     4     7    1
    25     7     8    1
    26    13    14   ar
    27    14    15   ar
    28    15    16   ar
    29    16    17   ar
    30    17    18   ar
    31    18    19   ar
    32    19    10   ar
    33     8     1    1
    34    19    14   ar
    35    25    20    1
    36    32    27   ar
@<TRIPOS>MOLECULE
*****
 32 36 0 0 0
SMALL
GASTEIGER

@<TRIPOS>ATOM
      1 C           1.9342    0.5754   19.6815 C.3     1  UNL1        0.0933
      2 C           0.7650    0.5761   20.6214 C.3     1  UNL1        0.0442
      3 C          -0.2346    1.6935   20.5741 C.3     1  UNL1        0.0953
      4 N          -0.0651    2.8102   19.5870 N.am    1  UNL1       -0.2794
      5 C          -1.0647    3.9276   19.5397 C.2     1  UNL1        0.2252
      6 O          -0.8952    5.0442   18.5527 O.2     1  UNL1       -0.2749
      7 C           1.1040    2.8095   18.6473 C.3     1  UNL1        0.0953
      8 C           2.1037    1.6921   18.6946 C.3     1  UNL1        0.0442
      9 C           5.3820   -3.1438   18.2116 C.3     1  UNL1        0.1351
     10 N           4.5186   -2.2515   19.0532 N.ar    1  UNL1       -0.2779
     11 C           3.5967   -1.1826   18.5456 C.ar    1  UNL1        0.3315
     12 O           3.3764   -0.8184   17.1072 O.2     1  UNL1       -0.2463
     13 N           2.9338   -0.5420   19.7288 N.ar    1  UNL1       -0.2817
     14 C           3.4460   -1.2149   20.9678 C.ar    1  UNL1        0.0796
     15 C           3.1470   -1.0020   22.4221 C.ar    1  UNL1        0.0188
     16 C           3.8276   -1.8457   23.4590 C.ar    1  UNL1        0.0016
     17 C           4.8070   -2.9023   23.0414 C.ar    1  UNL1        0.0016
     18 C           5.1060   -3.1151   21.5870 C.ar    1  UNL1        0.0188
     19 C           4.4255   -2.2714   20.5502 C.ar    1  UNL1        0.0798
     20 C          -2.2338    3.9282   20.4795 C.3     1  UNL1        0.0795
     21 C          -2.1390    4.6445   21.7940 C.3     1  UNL1        0.0264
     22 C          -3.3082    4.6451   22.7338 C.3     1  UNL1        0.0729
     23 N          -4.5721    3.9294   22.3590 N.3     1  UNL1       -0.2689
     24 C          -4.6668    3.2131   21.0445 C.3     1  UNL1        0.0729
     25 C          -3.4977    3.2125   20.1048 C.3     1  UNL1        0.0264
     26 C          -5.7412    3.9300   23.2988 C.3     1  UNL1        0.0992
     27 C          -5.5687    4.4076   24.7102 C.ar    1  UNL1       -0.0031
     28 C          -4.5299    3.7810   25.5924 C.ar    1  UNL1        0.0178
     29 C          -4.3574    4.2587   27.0038 C.ar    1  UNL1        0.0986
     30 N          -5.2237    5.3629   27.5330 N.ar    1  UNL1       -0.2423
     31 C          -6.2626    5.9895   26.6508 C.ar    1  UNL1        0.0986
     32 C          -6.4350    5.5119   25.2394 C.ar    1  UNL1        0.0178
@<TRIPOS>BOND
     1     9    10    1
     2    10    11   ar
     3    11    12    2
     4    11    13   ar
     5    13     1    1
     6     1     2    1
     7     2     3    1
     8     3     4    1
     9     4     5   am
    10     5     6    2
    11     5    20    1
    12    20    21    1
    13    21    22    1
    14    22    23    1
    15    23    26    1
    16    26    27    1
    17    27    28   ar
    18    28    29   ar
    19    29    30   ar
    20    30    31   ar
    21    31    32   ar
    22    23    24    1
    23    24    25    1
    24     4     7    1
    25     7     8    1
    26    13    14   ar
    27    14    15   ar
    28    15    16   ar
    29    16    17   ar
    30    17    18   ar
    31    18    19   ar
    32    19    10   ar
    33     8     1    1
    34    19    14   ar
    35    25    20    1
    36    32    27   ar
@<TRIPOS>MOLECULE
*****
 32 36 0 0 0
SMALL
GASTEIGER

@<TRIPOS>ATOM
      1 C          -1.9224    3.7698   21.1339 C.3     1  UNL1        0.0933
      2 C          -0.9530    2.6344   21.2802 C.3     1  UNL1        0.0442
      3 C           0.2630    2.5689   20.4043 C.3     1  UNL1        0.0953
      4 N           0.5097    3.6387   19.3822 N.am    1  UNL1       -0.2794
      5 C           1.7256    3.5732   18.5064 C.2     1  UNL1        0.2252
      6 O           1.9723    4.6430   17.4843 O.2     1  UNL1       -0.2749
      7 C          -0.4597    4.7740   19.2360 C.3     1  UNL1        0.0953
      8 C          -1.6757    4.8395   20.1119 C.3     1  UNL1        0.0442
      9 C          -6.9402    4.1069   22.7427 C.3     1  UNL1        0.1351
     10 N          -5.4448    3.9903   22.7492 N.ar    1  UNL1       -0.2779
     11 C          -4.5574    3.9615   21.5402 C.ar    1  UNL1        0.3315
     12 O          -5.0096    4.0443   20.1124 O.2     1  UNL1       -0.2463
     13 N          -3.1384    3.8353   22.0097 N.ar    1  UNL1       -0.2817
     14 C          -3.1488    3.7861   23.5089 C.ar    1  UNL1        0.0796
     15 C          -2.0444    3.6665   24.5169 C.ar    1  UNL1        0.0188
     16 C          -2.3655    3.6427   25.9819 C.ar    1  UNL1        0.0016
     17 C          -3.7910    3.7384   26.4389 C.ar    1  UNL1        0.0016
     18 C          -4.8954    3.8580   25.4309 C.ar    1  UNL1        0.0188
     19 C          -4.5742    3.8819   23.9659 C.ar    1  UNL1        0.0798
     20 C           2.6949    2.4379   18.6527 C.3     1  UNL1        0.0795
     21 C           2.2936    1.0516   18.2438 C.3     1  UNL1        0.0264
     22 C           3.2630   -0.0838   18.3902 C.3     1  UNL1        0.0729
     23 N           4.6337    0.1672   18.9454 N.3     1  UNL1       -0.2689
     24 C           5.0350    1.5535   19.3542 C.3     1  UNL1        0.0729
     25 C           4.0657    2.6888   19.2079 C.3     1  UNL1        0.0264
     26 C           5.6030   -0.9681   19.0917 C.3     1  UNL1        0.0992
     27 C           5.1171   -2.3171   19.5322 C.ar    1  UNL1       -0.0031
     28 C           4.8049   -2.5665   20.9780 C.ar    1  UNL1        0.0178
     29 C           4.3190   -3.9156   21.4185 C.ar    1  UNL1        0.0986
     30 N           4.1453   -5.0152   20.4132 N.ar    1  UNL1       -0.2423
     31 C           4.4575   -4.7658   18.9673 C.ar    1  UNL1        0.0986
     32 C           4.9434   -3.4167   18.5268 C.ar    1  UNL1        0.0178
@<TRIPOS>BOND
     1     9    10    1
     2    10    11   ar
     3    11    12    2
     4    11    13   ar
     5    13     1    1
     6     1     2    1
     7     2     3    1
     8     3     4    1
     9     4     5   am
    10     5     6    2
    11     5    20    1
    12    20    21    1
    13    21    22    1
    14    22    23    1
    15    23    26    1
    16    26    27    1
    17    27    28   ar
    18    28    29   ar
    19    29    30   ar
    20    30    31   ar
    21    31    32   ar
    22    23    24    1
    23    24    25    1
    24     4     7    1
    25     7     8    1
    26    13    14   ar
    27    14    15   ar
    28    15    16   ar
    29    16    17   ar
    30    17    18   ar
    31    18    19   ar
    32    19    10   ar
    33     8     1    1
    34    19    14   ar
    35    25    20    1
    36    32    27   ar
@<TRIPOS>MOLECULE
*****
 32 36 0 0 0
SMALL
GASTEIGER

@<TRIPOS>ATOM
      1 C           6.8562   -4.2221   26.1821 C.3     1  UNL1        0.0933
      2 C           6.9869   -3.0266   27.0787 C.3     1  UNL1        0.0442
      3 C           6.9954   -3.2037   28.5682 C.3     1  UNL1        0.0953
      4 N           6.8733   -4.5761   29.1611 N.am    1  UNL1       -0.2794
      5 C           6.8818   -4.7531   30.6506 C.2     1  UNL1        0.2252
      6 O           6.7597   -6.1256   31.2435 O.2     1  UNL1       -0.2749
      7 C           6.7426   -5.7715   28.2645 C.3     1  UNL1        0.0953
      8 C           6.7341   -5.5945   26.7750 C.3     1  UNL1        0.0442
      9 C           8.1209   -4.6164   21.0707 C.3     1  UNL1        0.1351
     10 N           7.4290   -4.2263   22.3432 N.ar    1  UNL1       -0.2779
     11 C           7.8045   -4.6751   23.7243 C.ar    1  UNL1        0.3315
     12 O           8.9379   -5.5928   24.0755 O.2     1  UNL1       -0.2463
     13 N           6.8477   -4.0451   24.6926 N.ar    1  UNL1       -0.2817
     14 C           5.8808   -3.2069   23.9099 C.ar    1  UNL1        0.0796
     15 C           4.7197   -2.3562   24.3317 C.ar    1  UNL1        0.0188
     16 C           3.9179   -1.6174   23.3016 C.ar    1  UNL1        0.0016
     17 C           4.2771   -1.7295   21.8496 C.ar    1  UNL1        0.0016
     18 C           5.4382   -2.5802   21.4277 C.ar    1  UNL1        0.0188
     19 C           6.2401   -3.3189   22.4578 C.ar    1  UNL1        0.0798
     20 C           7.0125   -3.5577   31.5471 C.3     1  UNL1        0.0795
     21 C           5.7861   -2.8227   32.0007 C.3     1  UNL1        0.0264
     22 C           5.9168   -1.6272   32.8973 C.3     1  UNL1        0.0729
     23 N           7.2740   -1.1668   33.3403 N.3     1  UNL1       -0.2689
     24 C           8.5003   -1.9018   32.8867 C.3     1  UNL1        0.0729
     25 C           8.3696   -3.0972   31.9901 C.3     1  UNL1        0.0264
     26 C           7.4046    0.0287   34.2368 C.3     1  UNL1        0.0992
     27 C           6.2129    0.5293   34.9978 C.ar    1  UNL1       -0.0031
     28 C           5.4236    1.6927   34.4747 C.ar    1  UNL1        0.0178
     29 C           4.2319    2.1933   35.2357 C.ar    1  UNL1        0.0986
     30 N           3.8295    1.5307   36.5198 N.ar    1  UNL1       -0.2423
     31 C           4.6188    0.3674   37.0429 C.ar    1  UNL1        0.0986
     32 C           5.8105   -0.1333   36.2819 C.ar    1  UNL1        0.0178
@<TRIPOS>BOND
     1     9    10    1
     2    10    11   ar
     3    11    12    2
     4    11    13   ar
     5    13     1    1
     6     1     2    1
     7     2     3    1
     8     3     4    1
     9     4     5   am
    10     5     6    2
    11     5    20    1
    12    20    21    1
    13    21    22    1
    14    22    23    1
    15    23    26    1
    16    26    27    1
    17    27    28   ar
    18    28    29   ar
    19    29    30   ar
    20    30    31   ar
    21    31    32   ar
    22    23    24    1
    23    24    25    1
    24     4     7    1
    25     7     8    1
    26    13    14   ar
    27    14    15   ar
    28    15    16   ar
    29    16    17   ar
    30    17    18   ar
    31    18    19   ar
    32    19    10   ar
    33     8     1    1
    34    19    14   ar
    35    25    20    1
    36    32    27   ar
@<TRIPOS>MOLECULE
*****
 32 36 0 0 0
SMALL
GASTEIGER

@<TRIPOS>ATOM
      1 C           2.0295    0.5113   19.7159 C.3     1  UNL1        0.0933
      2 C           0.7976    0.4465   20.5694 C.3     1  UNL1        0.0442
      3 C          -0.1881    1.5771   20.5506 C.3     1  UNL1        0.0953
      4 N           0.0582    2.7724   19.6785 N.am    1  UNL1       -0.2794
      5 C          -0.9274    3.9030   19.6598 C.2     1  UNL1        0.2252
      6 O          -0.6811    5.0983   18.7876 O.2     1  UNL1       -0.2749
      7 C           1.2901    2.8371   18.8251 C.3     1  UNL1        0.0953
      8 C           2.2757    1.7065   18.8439 C.3     1  UNL1        0.0442
      9 C           5.4364   -3.2074   18.1520 C.3     1  UNL1        0.1351
     10 N           4.5811   -2.3286   19.0158 N.ar    1  UNL1       -0.2779
     11 C           3.6741   -1.2345   18.5358 C.ar    1  UNL1        0.3315
     12 O           3.4633   -0.8270   17.1077 O.2     1  UNL1       -0.2463
     13 N           3.0151   -0.6193   19.7347 N.ar    1  UNL1       -0.2817
     14 C           3.5147   -1.3333   20.9556 C.ar    1  UNL1        0.0796
     15 C           3.2134   -1.1579   22.4145 C.ar    1  UNL1        0.0188
     16 C           3.8800   -2.0389   23.4292 C.ar    1  UNL1        0.0016
     17 C           4.8478   -3.0953   22.9849 C.ar    1  UNL1        0.0016
     18 C           5.1491   -3.2707   21.5260 C.ar    1  UNL1        0.0188
     19 C           4.4825   -2.3896   20.5114 C.ar    1  UNL1        0.0798
     20 C          -2.1592    3.8382   20.5131 C.3     1  UNL1        0.0795
     21 C          -3.4501    3.3441   19.9306 C.3     1  UNL1        0.0264
     22 C          -4.6820    3.2793   20.7841 C.3     1  UNL1        0.0729
     23 N          -4.6229    3.7087   22.2201 N.3     1  UNL1       -0.2689
     24 C          -3.3320    4.2028   22.8027 C.3     1  UNL1        0.0729
     25 C          -2.1002    4.2676   21.9492 C.3     1  UNL1        0.0264
     26 C          -5.8548    3.6439   23.0735 C.3     1  UNL1        0.0992
     27 C          -6.8372    4.7773   23.0599 C.ar    1  UNL1       -0.0031
     28 C          -7.8628    4.8940   24.1482 C.ar    1  UNL1        0.0178
     29 C          -8.8452    6.0274   24.1345 C.ar    1  UNL1        0.0986
     30 N          -8.8020    7.0442   23.0326 N.ar    1  UNL1       -0.2423
     31 C          -7.7763    6.9275   21.9442 C.ar    1  UNL1        0.0986
     32 C          -6.7939    5.7940   21.9579 C.ar    1  UNL1        0.0178
@<TRIPOS>BOND
     1     9    10    1
     2    10    11   ar
     3    11    12    2
     4    11    13   ar
     5    13     1    1
     6     1     2    1
     7     2     3    1
     8     3     4    1
     9     4     5   am
    10     5     6    2
    11     5    20    1
    12    20    21    1
    13    21    22    1
    14    22    23    1
    15    23    26    1
    16    26    27    1
    17    27    28   ar
    18    28    29   ar
    19    29    30   ar
    20    30    31   ar
    21    31    32   ar
    22    23    24    1
    23    24    25    1
    24     4     7    1
    25     7     8    1
    26    13    14   ar
    27    14    15   ar
    28    15    16   ar
    29    16    17   ar
    30    17    18   ar
    31    18    19   ar
    32    19    10   ar
    33     8     1    1
    34    19    14   ar
    35    25    20    1
    36    32    27   ar
@<TRIPOS>MOLECULE
*****
 32 36 0 0 0
SMALL
GASTEIGER

@<TRIPOS>ATOM
      1 C           6.0392   -1.9510   20.9963 C.3     1  UNL1        0.0933
      2 C           6.0681   -1.7942   22.4878 C.3     1  UNL1        0.0442
      3 C           6.6662   -2.8711   23.3438 C.3     1  UNL1        0.0953
      4 N           7.2353   -4.1048   22.7082 N.am    1  UNL1       -0.2794
      5 C           7.8334   -5.1817   23.5641 C.2     1  UNL1        0.2252
      6 O           8.4025   -6.4155   22.9286 O.2     1  UNL1       -0.2749
      7 C           7.2064   -4.2617   21.2167 C.3     1  UNL1        0.0953
      8 C           6.6083   -3.1848   20.3608 C.3     1  UNL1        0.0442
      9 C           5.5331    2.1703   17.7345 C.3     1  UNL1        0.1351
     10 N           5.2084    1.0202   18.6411 N.ar    1  UNL1       -0.2779
     11 C           6.2024    0.1426   19.3425 C.ar    1  UNL1        0.3315
     12 O           7.6954    0.2611   19.2605 O.2     1  UNL1       -0.2463
     13 N           5.4411   -0.8742   20.1403 N.ar    1  UNL1       -0.2817
     14 C           3.9766   -0.6250   19.9320 C.ar    1  UNL1        0.0796
     15 C           2.7555   -1.3130   20.4663 C.ar    1  UNL1        0.0188
     16 C           1.3906   -0.8302   20.0741 C.ar    1  UNL1        0.0016
     17 C           1.2469    0.3406   19.1474 C.ar    1  UNL1        0.0016
     18 C           2.4680    1.0286   18.6131 C.ar    1  UNL1        0.0188
     19 C           3.8329    0.5458   19.0054 C.ar    1  UNL1        0.0798
     20 C           7.8624   -5.0248   25.0556 C.3     1  UNL1        0.0795
     21 C           8.9499   -4.2208   25.7042 C.3     1  UNL1        0.0264
     22 C           8.9788   -4.0639   27.1958 C.3     1  UNL1        0.0729
     23 N           7.9201   -4.7110   28.0386 N.3     1  UNL1       -0.2689
     24 C           6.8325   -5.5150   27.3900 C.3     1  UNL1        0.0729
     25 C           6.8037   -5.6719   25.8985 C.3     1  UNL1        0.0264
     26 C           7.9490   -4.5540   29.5301 C.3     1  UNL1        0.0992
     27 C           7.0166   -3.5894   30.2010 C.ar    1  UNL1       -0.0031
     28 C           6.6521   -3.7789   31.6436 C.ar    1  UNL1        0.0178
     29 C           5.7197   -2.8143   32.3146 C.ar    1  UNL1        0.0986
     30 N           5.1519   -1.6601   31.5429 N.ar    1  UNL1       -0.2423
     31 C           5.5165   -1.4706   30.1002 C.ar    1  UNL1        0.0986
     32 C           6.4489   -2.4353   29.4293 C.ar    1  UNL1        0.0178
@<TRIPOS>BOND
     1     9    10    1
     2    10    11   ar
     3    11    12    2
     4    11    13   ar
     5    13     1    1
     6     1     2    1
     7     2     3    1
     8     3     4    1
     9     4     5   am
    10     5     6    2
    11     5    20    1
    12    20    21    1
    13    21    22    1
    14    22    23    1
    15    23    26    1
    16    26    27    1
    17    27    28   ar
    18    28    29   ar
    19    29    30   ar
    20    30    31   ar
    21    31    32   ar
    22    23    24    1
    23    24    25    1
    24     4     7    1
    25     7     8    1
    26    13    14   ar
    27    14    15   ar
    28    15    16   ar
    29    16    17   ar
    30    17    18   ar
    31    18    19   ar
    32    19    10   ar
    33     8     1    1
    34    19    14   ar
    35    25    20    1
    36    32    27   ar
@<TRIPOS>MOLECULE
*****
 32 36 0 0 0
SMALL
GASTEIGER

@<TRIPOS>ATOM
      1 C           3.5581   -1.1965   22.6248 C.3     1  UNL1        0.0933
      2 C           2.3858   -0.2650   22.7160 C.3     1  UNL1        0.0442
      3 C           2.0348    0.3728   24.0275 C.3     1  UNL1        0.0953
      4 N           2.8560    0.0791   25.2479 N.am    1  UNL1       -0.2794
      5 C           2.5051    0.7168   26.5594 C.2     1  UNL1        0.2252
      6 O           3.3263    0.4231   27.7798 O.2     1  UNL1       -0.2749
      7 C           4.0282   -0.8524   25.1567 C.3     1  UNL1        0.0953
      8 C           4.3792   -1.4902   23.8452 C.3     1  UNL1        0.0442
      9 C           4.8564   -4.7816   18.9721 C.3     1  UNL1        0.1351
     10 N           4.5058   -3.4822   19.6344 N.ar    1  UNL1       -0.2779
     11 C           4.2070   -3.2876   21.0914 C.ar    1  UNL1        0.3315
     12 O           4.2064   -4.3582   22.1419 O.2     1  UNL1       -0.2463
     13 N           3.9091   -1.8343   21.3133 N.ar    1  UNL1       -0.2817
     14 C           4.0237   -1.1307   19.9935 C.ar    1  UNL1        0.0796
     15 C           3.8399    0.3057   19.6026 C.ar    1  UNL1        0.0188
     16 C           4.0249    0.7236   18.1739 C.ar    1  UNL1        0.0016
     17 C           4.3937   -0.2948   17.1363 C.ar    1  UNL1        0.0016
     18 C           4.5775   -1.7312   17.5272 C.ar    1  UNL1        0.0188
     19 C           4.3925   -2.1492   18.9559 C.ar    1  UNL1        0.0798
     20 C           1.3329    1.6483   26.6504 C.3     1  UNL1        0.0795
     21 C           0.0147    1.1473   27.1618 C.3     1  UNL1        0.0264
     22 C          -1.1575    2.0789   27.2528 C.3     1  UNL1        0.0729
     23 N          -1.0115    3.5114   26.8324 N.3     1  UNL1       -0.2689
     24 C           0.3067    4.0123   26.3211 C.3     1  UNL1        0.0729
     25 C           1.4788    3.0808   26.2301 C.3     1  UNL1        0.0264
     26 C          -2.1837    4.4428   26.9234 C.3     1  UNL1        0.0992
     27 C          -3.3374    4.2913   25.9769 C.ar    1  UNL1       -0.0031
     28 C          -4.6921    4.8117   26.3563 C.ar    1  UNL1        0.0178
     29 C          -5.8459    4.6602   25.4098 C.ar    1  UNL1        0.0986
     30 N          -5.6449    3.9882   24.0839 N.ar    1  UNL1       -0.2423
     31 C          -4.2902    3.4678   23.7045 C.ar    1  UNL1        0.0986
     32 C          -3.1364    3.6193   24.6510 C.ar    1  UNL1        0.0178
@<TRIPOS>BOND
     1     9    10    1
     2    10    11   ar
     3    11    12    2
     4    11    13   ar
     5    13     1    1
     6     1     2    1
     7     2     3    1
     8     3     4    1
     9     4     5   am
    10     5     6    2
    11     5    20    1
    12    20    21    1
    13    21    22    1
    14    22    23    1
    15    23    26    1
    16    26    27    1
    17    27    28   ar
    18    28    29   ar
    19    29    30   ar
    20    30    31   ar
    21    31    32   ar
    22    23    24    1
    23    24    25    1
    24     4     7    1
    25     7     8    1
    26    13    14   ar
    27    14    15   ar
    28    15    16   ar
    29    16    17   ar
    30    17    18   ar
    31    18    19   ar
    32    19    10   ar
    33     8     1    1
    34    19    14   ar
    35    25    20    1
    36    32    27   ar
@<TRIPOS>MOLECULE
*****
 32 36 0 0 0
SMALL
GASTEIGER

@<TRIPOS>ATOM
      1 C          -2.4141    4.1385   22.0284 C.3     1  UNL1        0.0933
      2 C          -1.1882    3.2863   22.1739 C.3     1  UNL1        0.0442
      3 C          -0.3815    2.9199   20.9635 C.3     1  UNL1        0.0953
      4 N          -0.8007    3.4056   19.6077 N.am    1  UNL1       -0.2794
      5 C           0.0059    3.0392   18.3973 C.2     1  UNL1        0.2252
      6 O          -0.4133    3.5249   17.0414 O.2     1  UNL1       -0.2749
      7 C          -2.0266    4.2578   19.4622 C.3     1  UNL1        0.0953
      8 C          -2.8332    4.6242   20.6726 C.3     1  UNL1        0.0442
      9 C          -3.7392    5.6412   26.9138 C.3     1  UNL1        0.1351
     10 N          -3.8298    5.1956   25.4844 N.ar    1  UNL1       -0.2779
     11 C          -2.6718    4.9256   24.5699 C.ar    1  UNL1        0.3315
     12 O          -1.2200    5.0537   24.9243 O.2     1  UNL1       -0.2463
     13 N          -3.2207    4.5049   23.2389 N.ar    1  UNL1       -0.2817
     14 C          -4.7179    4.5150   23.3306 C.ar    1  UNL1        0.0796
     15 C          -5.7870    4.1906   22.3298 C.ar    1  UNL1        0.0188
     16 C          -7.2326    4.2931   22.7168 C.ar    1  UNL1        0.0016
     17 C          -7.6090    4.7200   24.1046 C.ar    1  UNL1        0.0016
     18 C          -6.5399    5.0444   25.1055 C.ar    1  UNL1        0.0188
     19 C          -5.0943    4.9419   24.7185 C.ar    1  UNL1        0.0798
     20 C           1.2317    2.1871   18.5428 C.3     1  UNL1        0.0795
     21 C           2.5776    2.8301   18.7021 C.3     1  UNL1        0.0264
     22 C           3.8034    1.9778   18.8476 C.3     1  UNL1        0.0729
     23 N           3.6834    0.4827   18.8339 N.3     1  UNL1       -0.2689
     24 C           2.3376   -0.1602   18.6746 C.3     1  UNL1        0.0729
     25 C           1.1118    0.6920   18.5290 C.3     1  UNL1        0.0264
     26 C           4.9092   -0.3694   18.9794 C.3     1  UNL1        0.0992
     27 C           4.7818   -1.7979   19.4188 C.ar    1  UNL1       -0.0031
     28 C           4.8551   -2.9032   18.4073 C.ar    1  UNL1        0.0178
     29 C           4.7277   -4.3317   18.8468 C.ar    1  UNL1        0.0986
     30 N           4.5271   -4.6549   20.2977 N.ar    1  UNL1       -0.2423
     31 C           4.4538   -3.5497   21.3092 C.ar    1  UNL1        0.0986
     32 C           4.5812   -2.1212   20.8698 C.ar    1  UNL1        0.0178
@<TRIPOS>BOND
     1     9    10    1
     2    10    11   ar
     3    11    12    2
     4    11    13   ar
     5    13     1    1
     6     1     2    1
     7     2     3    1
     8     3     4    1
     9     4     5   am
    10     5     6    2
    11     5    20    1
    12    20    21    1
    13    21    22    1
    14    22    23    1
    15    23    26    1
    16    26    27    1
    17    27    28   ar
    18    28    29   ar
    19    29    30   ar
    20    30    31   ar
    21    31    32   ar
    22    23    24    1
    23    24    25    1
    24     4     7    1
    25     7     8    1
    26    13    14   ar
    27    14    15   ar
    28    15    16   ar
    29    16    17   ar
    30    17    18   ar
    31    18    19   ar
    32    19    10   ar
    33     8     1    1
    34    19    14   ar
    35    25    20    1
    36    32    27   ar
@<TRIPOS>MOLECULE
*****
 32 36 0 0 0
SMALL
GASTEIGER

@<TRIPOS>ATOM
      1 C          -1.1023    3.2866   20.3689 C.3     1  UNL1        0.0933
      2 C          -0.4314    1.9497   20.4823 C.3     1  UNL1        0.0442
      3 C           0.9163    1.7317   19.8609 C.3     1  UNL1        0.0953
      4 N           1.5932    2.8505   19.1260 N.am    1  UNL1       -0.2794
      5 C           2.9409    2.6325   18.5046 C.2     1  UNL1        0.2252
      6 O           3.6178    3.7513   17.7697 O.2     1  UNL1       -0.2749
      7 C           0.9223    4.1873   19.0126 C.3     1  UNL1        0.0953
      8 C          -0.4254    4.4053   19.6340 C.3     1  UNL1        0.0442
      9 C          -4.9362    3.9792   23.9329 C.3     1  UNL1        0.1351
     10 N          -4.2122    3.8229   22.6285 N.ar    1  UNL1       -0.2779
     11 C          -2.7378    3.6050   22.4590 C.ar    1  UNL1        0.3315
     12 O          -1.7286    3.5050   23.5641 O.2     1  UNL1       -0.2463
     13 N          -2.4500    3.5046   20.9903 N.ar    1  UNL1       -0.2817
     14 C          -3.7464    3.6605   20.2521 C.ar    1  UNL1        0.0796
     15 C          -4.0759    3.6487   18.7888 C.ar    1  UNL1        0.0188
     16 C          -5.4945    3.8337   18.3380 C.ar    1  UNL1        0.0016
     17 C          -6.5836    4.0304   19.3504 C.ar    1  UNL1        0.0016
     18 C          -6.2542    4.0422   20.8137 C.ar    1  UNL1        0.0188
     19 C          -4.8356    3.8572   21.2645 C.ar    1  UNL1        0.0798
     20 C           3.6116    1.2957   18.6181 C.3     1  UNL1        0.0795
     21 C           4.6969    1.0847   19.6318 C.3     1  UNL1        0.0264
     22 C           5.3676   -0.2523   19.7453 C.3     1  UNL1        0.0729
     23 N           4.9531   -1.3782   18.8450 N.3     1  UNL1       -0.2689
     24 C           3.8678   -1.1672   17.8312 C.3     1  UNL1        0.0729
     25 C           3.1971    0.1697   17.7178 C.3     1  UNL1        0.0264
     26 C           5.6238   -2.7150   18.9585 C.3     1  UNL1        0.0992
     27 C           5.9629   -3.2717   20.3094 C.ar    1  UNL1       -0.0031
     28 C           4.9071   -3.3589   21.3713 C.ar    1  UNL1        0.0178
     29 C           5.2462   -3.9157   22.7222 C.ar    1  UNL1        0.0986
     30 N           6.6412   -4.3852   23.0112 N.ar    1  UNL1       -0.2423
     31 C           7.6970   -4.2980   21.9493 C.ar    1  UNL1        0.0986
     32 C           7.3579   -3.7413   20.5984 C.ar    1  UNL1        0.0178
@<TRIPOS>BOND
     1     9    10    1
     2    10    11   ar
     3    11    12    2
     4    11    13   ar
     5    13     1    1
     6     1     2    1
     7     2     3    1
     8     3     4    1
     9     4     5   am
    10     5     6    2
    11     5    20    1
    12    20    21    1
    13    21    22    1
    14    22    23    1
    15    23    26    1
    16    26    27    1
    17    27    28   ar
    18    28    29   ar
    19    29    30   ar
    20    30    31   ar
    21    31    32   ar
    22    23    24    1
    23    24    25    1
    24     4     7    1
    25     7     8    1
    26    13    14   ar
    27    14    15   ar
    28    15    16   ar
    29    16    17   ar
    30    17    18   ar
    31    18    19   ar
    32    19    10   ar
    33     8     1    1
    34    19    14   ar
    35    25    20    1
    36    32    27   ar
