@<TRIPOS>MOLECULE
*****
 30 34 0 0 0
SMALL
GASTEIGER

@<TRIPOS>ATOM
      1 C           6.0761   -3.0155   23.6551 C.3     1  UNL1        0.0892
      2 C           6.0145   -1.5299   23.4575 C.3     1  UNL1        0.1584
      3 O           5.7550   -0.9649   22.0923 O.3     1  UNL1       -0.3490
      4 C           5.5573   -1.8857   20.9248 C.3     1  UNL1        0.1538
      5 C           5.6190   -3.3714   21.1225 C.3     1  UNL1        0.0841
      6 N           5.4212   -4.2922   19.9550 N.3     1  UNL1       -0.3199
      7 C           5.8784   -3.9363   22.4876 C.3     1  UNL1        0.0368
      8 H           5.2575   -3.7420   19.1119 H       1  UNL1        0.1189
      9 H           4.6167   -4.8945   20.1294 H       1  UNL1        0.1189
     10 C           6.2213   -2.4712   32.5846 C.3     1  UNL1        0.0522
     11 C           6.5256   -3.4204   31.4636 C.ar    1  UNL1        0.0626
     12 C           7.0409   -4.7964   31.7651 C.ar    1  UNL1        0.0355
     13 C           7.3451   -5.7456   30.6441 C.ar    1  UNL1        0.1033
     14 N           7.1340   -5.3188   29.2218 N.ar    1  UNL1       -0.2113
     15 N           7.3444   -6.0308   27.9184 N.ar    1  UNL1       -0.1669
     16 C           6.9590   -5.0948   26.8114 C.ar    1  UNL1        0.0954
     17 C           6.5105   -3.8043   27.4306 C.ar    1  UNL1        0.0463
     18 C           6.6187   -3.9428   28.9203 C.ar    1  UNL1        0.1619
     19 N           6.3145   -2.9936   30.0413 N.ar    1  UNL1       -0.2310
     20 C           6.1252   -2.8684   26.3237 C.3     1  UNL1        0.1038
     21 N           6.3356   -3.5803   25.0203 N.3     1  UNL1       -0.2627
     22 C           6.8509   -4.9564   25.3217 C.3     1  UNL1        0.1205
     23 C           5.2979   -1.3209   19.5597 C.ar    1  UNL1        0.0355
     24 C           6.4215   -0.7137   18.7733 C.ar    1  UNL1        0.0300
     25 C           6.1621   -0.1488   17.4082 C.ar    1  UNL1        0.1400
     26 F           7.2859    0.4584   16.6218 F       1  UNL1       -0.2042
     27 C           4.7790   -0.1912   16.8294 C.ar    1  UNL1        0.0319
     28 C           3.6552   -0.7984   17.6158 C.ar    1  UNL1        0.0317
     29 C           3.9146   -1.3633   18.9809 C.ar    1  UNL1        0.1386
     30 F           2.7908   -1.9706   19.7673 F       1  UNL1       -0.2044
@<TRIPOS>BOND
     1    10    11    1
     2    11    12   ar
     3    12    13   ar
     4    13    14   ar
     5    14    15   ar
     6    15    16   ar
     7    16    17   ar
     8    17    18   ar
     9    18    19   ar
    10    17    20    1
    11    20    21    1
    12     1    21    1
    13     1     2    1
    14     2     3    1
    15     3     4    1
    16     4    23    1
    17    23    24   ar
    18    24    25   ar
    19    25    26    1
    20    25    27   ar
    21    27    28   ar
    22    28    29   ar
    23    29    30    1
    24     4     5    1
    25     5     6    1
    26     5     7    1
    27    21    22    1
    28    19    11   ar
    29     7     1    1
    30    18    14   ar
    31    29    23   ar
    32    22    16    1
    33     6     8    1
    34     6     9    1
@<TRIPOS>MOLECULE
*****
 30 34 0 0 0
SMALL
GASTEIGER

@<TRIPOS>ATOM
      1 C           0.5873    1.5866   29.3771 C.3     1  UNL1        0.0892
      2 C          -0.5363    0.7333   28.8677 C.3     1  UNL1        0.1584
      3 O          -1.4744    1.2709   27.8279 O.3     1  UNL1       -0.3490
      4 C          -1.2889    2.6617   27.2976 C.3     1  UNL1        0.1538
      5 C          -0.1652    3.5150   27.8070 C.3     1  UNL1        0.0841
      6 N           0.0203    4.9058   27.2767 N.3     1  UNL1       -0.3199
      7 C           0.7728    2.9774   28.8468 C.3     1  UNL1        0.0368
      8 H          -0.7008    5.1042   26.5831 H       1  UNL1        0.1189
      9 H           0.9401    4.9844   26.8430 H       1  UNL1        0.1189
     10 C           4.6736    1.9239   37.3295 C.3     1  UNL1        0.0522
     11 C           4.5866    1.0808   36.0919 C.ar    1  UNL1        0.0626
     12 C           5.3987   -0.1755   35.9815 C.ar    1  UNL1        0.0355
     13 C           5.3117   -1.0186   34.7440 C.ar    1  UNL1        0.1033
     14 N           4.4125   -0.6054   33.6167 N.ar    1  UNL1       -0.2113
     15 N           4.1219   -1.2297   32.2841 N.ar    1  UNL1       -0.1669
     16 C           3.1301   -0.3593   31.5709 C.ar    1  UNL1        0.0954
     17 C           2.8077    0.8029   32.4626 C.ar    1  UNL1        0.0463
     18 C           3.6003    0.6508   33.7271 C.ar    1  UNL1        0.1619
     19 N           3.6874    1.4939   34.9646 N.ar    1  UNL1       -0.2310
     20 C           1.8160    1.6733   31.7494 C.3     1  UNL1        0.1038
     21 N           1.5254    1.0490   30.4168 N.3     1  UNL1       -0.2627
     22 C           2.3376   -0.2072   30.3065 C.3     1  UNL1        0.1205
     23 C          -2.2269    3.1993   26.2579 C.ar    1  UNL1        0.0355
     24 C          -3.5588    3.7561   26.6653 C.ar    1  UNL1        0.0300
     25 C          -4.4968    4.2936   25.6256 C.ar    1  UNL1        0.1400
     26 F          -5.8287    4.8504   26.0332 F       1  UNL1       -0.2042
     27 C          -4.1031    4.2744   24.1784 C.ar    1  UNL1        0.0319
     28 C          -2.7712    3.7176   23.7709 C.ar    1  UNL1        0.0317
     29 C          -1.8331    3.1801   24.8106 C.ar    1  UNL1        0.1386
     30 F          -0.5012    2.6232   24.4031 F       1  UNL1       -0.2044
@<TRIPOS>BOND
     1    10    11    1
     2    11    12   ar
     3    12    13   ar
     4    13    14   ar
     5    14    15   ar
     6    15    16   ar
     7    16    17   ar
     8    17    18   ar
     9    18    19   ar
    10    17    20    1
    11    20    21    1
    12     1    21    1
    13     1     2    1
    14     2     3    1
    15     3     4    1
    16     4    23    1
    17    23    24   ar
    18    24    25   ar
    19    25    26    1
    20    25    27   ar
    21    27    28   ar
    22    28    29   ar
    23    29    30    1
    24     4     5    1
    25     5     6    1
    26     5     7    1
    27    21    22    1
    28    19    11   ar
    29     7     1    1
    30    18    14   ar
    31    29    23   ar
    32    22    16    1
    33     6     8    1
    34     6     9    1
@<TRIPOS>MOLECULE
*****
 30 34 0 0 0
SMALL
GASTEIGER

@<TRIPOS>ATOM
      1 C           5.6795   -2.6603   24.0294 C.3     1  UNL1        0.0892
      2 C           5.7790   -1.2198   23.6233 C.3     1  UNL1        0.1584
      3 O           5.3985   -0.8043   22.2331 O.3     1  UNL1       -0.3490
      4 C           4.9184   -1.8295   21.2489 C.3     1  UNL1        0.1538
      5 C           4.8189   -3.2702   21.6551 C.3     1  UNL1        0.0841
      6 N           4.3388   -4.2954   20.6709 N.3     1  UNL1       -0.3199
      7 C           5.1994   -3.6855   23.0453 C.3     1  UNL1        0.0368
      8 H           4.1260   -3.8408   19.7830 H       1  UNL1        0.1189
      9 H           3.4981   -4.7460   21.0322 H       1  UNL1        0.1189
     10 C           5.9206   -1.4693   32.8937 C.3     1  UNL1        0.0522
     11 C           6.3574   -2.4309   31.8285 C.ar    1  UNL1        0.0626
     12 C           7.1050   -3.6761   32.2031 C.ar    1  UNL1        0.0355
     13 C           7.5419   -4.6377   31.1379 C.ar    1  UNL1        0.1033
     14 N           7.2311   -4.3540   29.6982 N.ar    1  UNL1       -0.2113
     15 N           7.5314   -5.1110   28.4385 N.ar    1  UNL1       -0.1669
     16 C           6.9694   -4.3335   27.2854 C.ar    1  UNL1        0.0954
     17 C           6.3218   -3.0961   27.8324 C.ar    1  UNL1        0.0463
     18 C           6.4836   -3.1087   29.3236 C.ar    1  UNL1        0.1619
     19 N           6.0467   -2.1472   30.3888 N.ar    1  UNL1       -0.2310
     20 C           5.7598   -2.3187   26.6793 C.3     1  UNL1        0.1038
     21 N           6.0600   -3.0757   25.4196 N.3     1  UNL1       -0.2627
     22 C           6.8076   -4.3209   25.7942 C.3     1  UNL1        0.1205
     23 C           4.5379   -1.4142   19.8587 C.ar    1  UNL1        0.0355
     24 C           3.2397   -0.7026   19.6174 C.ar    1  UNL1        0.0300
     25 C           2.8592   -0.2873   18.2272 C.ar    1  UNL1        0.1400
     26 F           1.5610    0.4243   17.9860 F       1  UNL1       -0.2042
     27 C           3.7769   -0.5835   17.0784 C.ar    1  UNL1        0.0319
     28 C           5.0751   -1.2951   17.3196 C.ar    1  UNL1        0.0317
     29 C           5.4556   -1.7104   18.7098 C.ar    1  UNL1        0.1386
     30 F           6.7539   -2.4221   18.9511 F       1  UNL1       -0.2044
@<TRIPOS>BOND
     1    10    11    1
     2    11    12   ar
     3    12    13   ar
     4    13    14   ar
     5    14    15   ar
     6    15    16   ar
     7    16    17   ar
     8    17    18   ar
     9    18    19   ar
    10    17    20    1
    11    20    21    1
    12     1    21    1
    13     1     2    1
    14     2     3    1
    15     3     4    1
    16     4    23    1
    17    23    24   ar
    18    24    25   ar
    19    25    26    1
    20    25    27   ar
    21    27    28   ar
    22    28    29   ar
    23    29    30    1
    24     4     5    1
    25     5     6    1
    26     5     7    1
    27    21    22    1
    28    19    11   ar
    29     7     1    1
    30    18    14   ar
    31    29    23   ar
    32    22    16    1
    33     6     8    1
    34     6     9    1
@<TRIPOS>MOLECULE
*****
 30 34 0 0 0
SMALL
GASTEIGER

@<TRIPOS>ATOM
      1 C          -1.0194    2.5545   27.2348 C.3     1  UNL1        0.0892
      2 C           0.1778    3.3520   27.6600 C.3     1  UNL1        0.1584
      3 O           1.1080    2.8096   28.7043 O.3     1  UNL1       -0.3490
      4 C           0.8410    1.4696   29.3234 C.3     1  UNL1        0.1538
      5 C          -0.3562    0.6721   28.8981 C.3     1  UNL1        0.0841
      6 N          -0.6232   -0.6679   29.5172 N.3     1  UNL1       -0.3199
      7 C          -1.2863    1.2145   27.8538 C.3     1  UNL1        0.0368
      8 H           0.1037   -0.8772   30.2014 H       1  UNL1        0.1189
      9 H          -0.6229   -1.3841   28.7909 H       1  UNL1        0.1189
     10 C          -8.8902    5.8482   24.5415 C.3     1  UNL1        0.0522
     11 C          -7.5309    5.4876   24.0198 C.ar    1  UNL1        0.0626
     12 C          -7.2088    5.6825   22.5679 C.ar    1  UNL1        0.0355
     13 C          -5.8495    5.3219   22.0462 C.ar    1  UNL1        0.1033
     14 N          -4.8122    4.7664   22.9764 N.ar    1  UNL1       -0.2113
     15 N          -3.3967    4.3236   22.7521 N.ar    1  UNL1       -0.1669
     16 C          -2.8439    3.8551   24.0655 C.ar    1  UNL1        0.0954
     17 C          -3.9177    4.0083   25.1015 C.ar    1  UNL1        0.0463
     18 C          -5.1342    4.5715   24.4284 C.ar    1  UNL1        0.1619
     19 N          -6.4936    4.9321   24.9501 N.ar    1  UNL1       -0.2310
     20 C          -3.3650    3.5397   26.4148 C.3     1  UNL1        0.1038
     21 N          -1.9495    3.0969   26.1905 N.3     1  UNL1       -0.2627
     22 C          -1.6274    3.2918   24.7385 C.3     1  UNL1        0.1205
     23 C           1.7711    0.9271   30.3677 C.ar    1  UNL1        0.0355
     24 C           1.8554    1.5864   31.7124 C.ar    1  UNL1        0.0300
     25 C           2.7855    1.0439   32.7566 C.ar    1  UNL1        0.1400
     26 F           2.8697    1.7033   34.1013 F       1  UNL1       -0.2042
     27 C           3.6314   -0.1577   32.4563 C.ar    1  UNL1        0.0319
     28 C           3.5472   -0.8171   31.1116 C.ar    1  UNL1        0.0317
     29 C           2.6170   -0.2746   30.0673 C.ar    1  UNL1        0.1386
     30 F           2.5328   -0.9339   28.7225 F       1  UNL1       -0.2044
@<TRIPOS>BOND
     1    10    11    1
     2    11    12   ar
     3    12    13   ar
     4    13    14   ar
     5    14    15   ar
     6    15    16   ar
     7    16    17   ar
     8    17    18   ar
     9    18    19   ar
    10    17    20    1
    11    20    21    1
    12     1    21    1
    13     1     2    1
    14     2     3    1
    15     3     4    1
    16     4    23    1
    17    23    24   ar
    18    24    25   ar
    19    25    26    1
    20    25    27   ar
    21    27    28   ar
    22    28    29   ar
    23    29    30    1
    24     4     5    1
    25     5     6    1
    26     5     7    1
    27    21    22    1
    28    19    11   ar
    29     7     1    1
    30    18    14   ar
    31    29    23   ar
    32    22    16    1
    33     6     8    1
    34     6     9    1
@<TRIPOS>MOLECULE
*****
 30 34 0 0 0
SMALL
GASTEIGER

@<TRIPOS>ATOM
      1 C           3.5366   -0.8310   25.1209 C.3     1  UNL1        0.0892
      2 C           4.7218   -1.7305   24.9308 C.3     1  UNL1        0.1584
      3 O           5.0944   -2.1998   23.5556 O.3     1  UNL1       -0.3490
      4 C           4.2817   -1.7695   22.3705 C.3     1  UNL1        0.1538
      5 C           3.0964   -0.8700   22.5607 C.3     1  UNL1        0.0841
      6 N           2.2837   -0.4397   21.3756 N.3     1  UNL1       -0.3199
      7 C           2.7239   -0.4008   23.9358 C.3     1  UNL1        0.0368
      8 H           2.6761   -0.8488   20.5276 H       1  UNL1        0.1189
      9 H           2.3017    0.5775   21.3022 H       1  UNL1        0.1189
     10 C           0.2661    5.2261   30.8364 C.3     1  UNL1        0.0522
     11 C           0.8499    3.8448   30.8004 C.ar    1  UNL1        0.0626
     12 C           1.0138    3.0664   32.0721 C.ar    1  UNL1        0.0355
     13 C           1.5976    1.6852   32.0360 C.ar    1  UNL1        0.1033
     14 N           2.0175    1.0823   30.7283 N.ar    1  UNL1       -0.2113
     15 N           2.6193   -0.2477   30.3834 N.ar    1  UNL1       -0.1669
     16 C           2.8274   -0.2913   28.8985 C.ar    1  UNL1        0.0954
     17 C           2.3542    1.0118   28.3257 C.ar    1  UNL1        0.0463
     18 C           1.8537    1.8607   29.4566 C.ar    1  UNL1        0.1619
     19 N           1.2699    3.2420   29.4927 N.ar    1  UNL1       -0.2310
     20 C           2.5623    0.9682   26.8409 C.3     1  UNL1        0.1038
     21 N           3.1640   -0.3618   26.4960 N.3     1  UNL1       -0.2627
     22 C           3.3279   -1.1402   27.7677 C.3     1  UNL1        0.1205
     23 C           4.6542   -2.2388   20.9954 C.ar    1  UNL1        0.0355
     24 C           4.3592   -3.6491   20.5786 C.ar    1  UNL1        0.0300
     25 C           4.7317   -4.1183   19.2035 C.ar    1  UNL1        0.1400
     26 F           4.4367   -5.5288   18.7868 F       1  UNL1       -0.2042
     27 C           5.3992   -3.1772   18.2451 C.ar    1  UNL1        0.0319
     28 C           5.6942   -1.7668   18.6618 C.ar    1  UNL1        0.0317
     29 C           5.3217   -1.2976   20.0370 C.ar    1  UNL1        0.1386
     30 F           5.6167    0.1129   20.4538 F       1  UNL1       -0.2044
@<TRIPOS>BOND
     1    10    11    1
     2    11    12   ar
     3    12    13   ar
     4    13    14   ar
     5    14    15   ar
     6    15    16   ar
     7    16    17   ar
     8    17    18   ar
     9    18    19   ar
    10    17    20    1
    11    20    21    1
    12     1    21    1
    13     1     2    1
    14     2     3    1
    15     3     4    1
    16     4    23    1
    17    23    24   ar
    18    24    25   ar
    19    25    26    1
    20    25    27   ar
    21    27    28   ar
    22    28    29   ar
    23    29    30    1
    24     4     5    1
    25     5     6    1
    26     5     7    1
    27    21    22    1
    28    19    11   ar
    29     7     1    1
    30    18    14   ar
    31    29    23   ar
    32    22    16    1
    33     6     8    1
    34     6     9    1
@<TRIPOS>MOLECULE
*****
 30 34 0 0 0
SMALL
GASTEIGER

@<TRIPOS>ATOM
      1 C           3.9313   -0.6851   26.9920 C.3     1  UNL1        0.0892
      2 C           5.2871   -0.6912   27.6337 C.3     1  UNL1        0.1584
      3 O           5.4094   -0.6871   29.1288 O.3     1  UNL1       -0.3490
      4 C           4.1757   -0.6770   29.9821 C.3     1  UNL1        0.1538
      5 C           2.8199   -0.6710   29.3403 C.3     1  UNL1        0.0841
      6 N           1.5863   -0.6609   30.1936 N.3     1  UNL1       -0.3199
      7 C           2.6977   -0.6751   27.8453 C.3     1  UNL1        0.0368
      8 H           1.8537   -0.6594   31.1779 H       1  UNL1        0.1189
      9 H           1.0282   -1.4911   29.9943 H       1  UNL1        0.1189
     10 C           4.6471   -4.5837   18.9707 C.3     1  UNL1        0.0522
     11 C           4.2425   -3.2897   19.6124 C.ar    1  UNL1        0.0626
     12 C           3.7683   -2.1476   18.7635 C.ar    1  UNL1        0.0355
     13 C           3.3636   -0.8536   19.4052 C.ar    1  UNL1        0.1033
     14 N           3.4331   -0.7017   20.8959 N.ar    1  UNL1       -0.2113
     15 N           3.1026    0.4452   21.8044 N.ar    1  UNL1       -0.1669
     16 C           3.3725    0.0119   23.2149 C.ar    1  UNL1        0.0954
     17 C           3.8698   -1.4028   23.1781 C.ar    1  UNL1        0.0463
     18 C           3.9073   -1.8437   21.7448 C.ar    1  UNL1        0.1619
     19 N           4.3120   -3.1378   21.1031 N.ar    1  UNL1       -0.2310
     20 C           4.1397   -1.8360   24.5885 C.3     1  UNL1        0.1038
     21 N           3.8092   -0.6892   25.4970 N.3     1  UNL1       -0.2627
     22 C           3.3350    0.4529   24.6481 C.3     1  UNL1        0.1205
     23 C           4.2979   -0.6730   31.4771 C.ar    1  UNL1        0.0355
     24 C           3.7567    0.4790   32.2707 C.ar    1  UNL1        0.0300
     25 C           3.8789    0.4830   33.7657 C.ar    1  UNL1        0.1400
     26 F           3.3376    1.6351   34.5593 F       1  UNL1       -0.2042
     27 C           4.5423   -0.6649   34.4671 C.ar    1  UNL1        0.0319
     28 C           5.0835   -1.8169   33.6735 C.ar    1  UNL1        0.0317
     29 C           4.9614   -1.8210   32.1785 C.ar    1  UNL1        0.1386
     30 F           5.5026   -2.9731   31.3848 F       1  UNL1       -0.2044
@<TRIPOS>BOND
     1    10    11    1
     2    11    12   ar
     3    12    13   ar
     4    13    14   ar
     5    14    15   ar
     6    15    16   ar
     7    16    17   ar
     8    17    18   ar
     9    18    19   ar
    10    17    20    1
    11    20    21    1
    12     1    21    1
    13     1     2    1
    14     2     3    1
    15     3     4    1
    16     4    23    1
    17    23    24   ar
    18    24    25   ar
    19    25    26    1
    20    25    27   ar
    21    27    28   ar
    22    28    29   ar
    23    29    30    1
    24     4     5    1
    25     5     6    1
    26     5     7    1
    27    21    22    1
    28    19    11   ar
    29     7     1    1
    30    18    14   ar
    31    29    23   ar
    32    22    16    1
    33     6     8    1
    34     6     9    1
@<TRIPOS>MOLECULE
*****
 30 34 0 0 0
SMALL
GASTEIGER

@<TRIPOS>ATOM
      1 C          -0.3778    2.3655   20.7536 C.3     1  UNL1        0.0892
      2 C          -0.5373    2.5681   22.2313 C.3     1  UNL1        0.1584
      3 O          -1.7452    3.2799   22.7647 O.3     1  UNL1       -0.3490
      4 C          -2.7936    3.7891   21.8204 C.3     1  UNL1        0.1538
      5 C          -2.6340    3.5865   20.3427 C.3     1  UNL1        0.0841
      6 N          -3.6824    4.0957   19.3984 N.3     1  UNL1       -0.3199
      7 C          -1.4262    2.8748   19.8093 C.3     1  UNL1        0.0368
      8 H          -4.4261    4.5496   19.9287 H       1  UNL1        0.1189
      9 H          -4.0703    3.3155   18.8682 H       1  UNL1        0.1189
     10 C           4.3648   -5.0140   18.9925 C.3     1  UNL1        0.0522
     11 C           4.4257   -3.5216   18.8546 C.ar    1  UNL1        0.0626
     12 C           5.6246   -2.8747   18.2268 C.ar    1  UNL1        0.0355
     13 C           5.6854   -1.3823   18.0889 C.ar    1  UNL1        0.1033
     14 N           4.5474   -0.5368   18.5787 N.ar    1  UNL1       -0.2113
     15 N           4.3264    0.9468   18.5780 N.ar    1  UNL1       -0.1669
     16 C           2.9909    1.2169   19.2053 C.ar    1  UNL1        0.0954
     17 C           2.3865   -0.0999   19.5937 C.ar    1  UNL1        0.0463
     18 C           3.3485   -1.1837   19.2065 C.ar    1  UNL1        0.1619
     19 N           3.2876   -2.6761   19.3444 N.ar    1  UNL1       -0.2310
     20 C           1.0510    0.1702   20.2210 C.3     1  UNL1        0.1038
     21 N           0.8300    1.6538   20.2203 N.3     1  UNL1       -0.2627
     22 C           2.0289    2.3007   19.5925 C.3     1  UNL1        0.1205
     23 C          -4.0014    4.5008   22.3538 C.ar    1  UNL1        0.0355
     24 C          -5.3088    3.7751   22.4708 C.ar    1  UNL1        0.0300
     25 C          -6.5167    4.4868   23.0041 C.ar    1  UNL1        0.1400
     26 F          -7.8241    3.7610   23.1211 F       1  UNL1       -0.2042
     27 C          -6.4171    5.9243   23.4205 C.ar    1  UNL1        0.0319
     28 C          -5.1096    6.6502   23.3036 C.ar    1  UNL1        0.0317
     29 C          -3.9018    5.9384   22.7702 C.ar    1  UNL1        0.1386
     30 F          -2.5942    6.6643   22.6533 F       1  UNL1       -0.2044
@<TRIPOS>BOND
     1    10    11    1
     2    11    12   ar
     3    12    13   ar
     4    13    14   ar
     5    14    15   ar
     6    15    16   ar
     7    16    17   ar
     8    17    18   ar
     9    18    19   ar
    10    17    20    1
    11    20    21    1
    12     1    21    1
    13     1     2    1
    14     2     3    1
    15     3     4    1
    16     4    23    1
    17    23    24   ar
    18    24    25   ar
    19    25    26    1
    20    25    27   ar
    21    27    28   ar
    22    28    29   ar
    23    29    30    1
    24     4     5    1
    25     5     6    1
    26     5     7    1
    27    21    22    1
    28    19    11   ar
    29     7     1    1
    30    18    14   ar
    31    29    23   ar
    32    22    16    1
    33     6     8    1
    34     6     9    1
@<TRIPOS>MOLECULE
*****
 30 34 0 0 0
SMALL
GASTEIGER

@<TRIPOS>ATOM
      1 C           5.6848   -1.8680   32.8058 C.3     1  UNL1        0.0892
      2 C           4.5182   -2.1919   33.6913 C.3     1  UNL1        0.1584
      3 O           4.0863   -1.2193   34.7485 O.3     1  UNL1       -0.3490
      4 C           4.8211    0.0771   34.9202 C.3     1  UNL1        0.1538
      5 C           5.9878    0.4009   34.0347 C.3     1  UNL1        0.0841
      6 N           6.7226    1.6973   34.2064 N.3     1  UNL1       -0.3199
      7 C           6.4196   -0.5716   32.9775 C.3     1  UNL1        0.0368
      8 H           6.2975    2.2313   34.9644 H       1  UNL1        0.1189
      9 H           6.6706    2.2348   33.3411 H       1  UNL1        0.1189
     10 C           6.8731   -4.3389   24.2891 C.3     1  UNL1        0.0522
     11 C           7.0639   -4.8372   25.6910 C.ar    1  UNL1        0.0626
     12 C           7.6423   -6.2003   25.9302 C.ar    1  UNL1        0.0355
     13 C           7.8331   -6.6986   27.3321 C.ar    1  UNL1        0.1033
     14 N           7.4456   -5.8337   28.4948 N.ar    1  UNL1       -0.2113
     15 N           7.5163   -6.0535   29.9769 N.ar    1  UNL1       -0.1669
     16 C           6.9817   -4.8262   30.6536 C.ar    1  UNL1        0.0954
     17 C           6.5805   -3.8479   29.5897 C.ar    1  UNL1        0.0463
     18 C           6.8673   -4.4705   28.2555 C.ar    1  UNL1        0.1619
     19 N           6.6764   -3.9723   26.8536 N.ar    1  UNL1       -0.2310
     20 C           6.0459   -2.6207   30.2664 C.3     1  UNL1        0.1038
     21 N           6.1166   -2.8405   31.7485 N.3     1  UNL1       -0.2627
     22 C           6.6950   -4.2037   31.9878 C.3     1  UNL1        0.1205
     23 C           4.3893    1.0496   35.9775 C.ar    1  UNL1        0.0355
     24 C           5.1195    1.1076   37.2864 C.ar    1  UNL1        0.0300
     25 C           4.6876    2.0801   38.3436 C.ar    1  UNL1        0.1400
     26 F           5.4178    2.1381   39.6526 F       1  UNL1       -0.2042
     27 C           3.5257    2.9946   38.0919 C.ar    1  UNL1        0.0319
     28 C           2.7955    2.9366   36.7829 C.ar    1  UNL1        0.0317
     29 C           3.2273    1.9641   35.7257 C.ar    1  UNL1        0.1386
     30 F           2.4971    1.9061   34.4166 F       1  UNL1       -0.2044
@<TRIPOS>BOND
     1    10    11    1
     2    11    12   ar
     3    12    13   ar
     4    13    14   ar
     5    14    15   ar
     6    15    16   ar
     7    16    17   ar
     8    17    18   ar
     9    18    19   ar
    10    17    20    1
    11    20    21    1
    12     1    21    1
    13     1     2    1
    14     2     3    1
    15     3     4    1
    16     4    23    1
    17    23    24   ar
    18    24    25   ar
    19    25    26    1
    20    25    27   ar
    21    27    28   ar
    22    28    29   ar
    23    29    30    1
    24     4     5    1
    25     5     6    1
    26     5     7    1
    27    21    22    1
    28    19    11   ar
    29     7     1    1
    30    18    14   ar
    31    29    23   ar
    32    22    16    1
    33     6     8    1
    34     6     9    1
@<TRIPOS>MOLECULE
*****
 30 34 0 0 0
SMALL
GASTEIGER

@<TRIPOS>ATOM
      1 C           3.7666   -1.0137   25.1818 C.3     1  UNL1        0.0892
      2 C           2.9216   -0.5317   24.0401 C.3     1  UNL1        0.1584
      3 O           3.1870   -1.0269   22.6492 O.3     1  UNL1       -0.3490
      4 C           4.2974   -2.0042   22.4002 C.3     1  UNL1        0.1538
      5 C           5.1424   -2.4862   23.5421 C.3     1  UNL1        0.0841
      6 N           6.2527   -3.4635   23.2931 N.3     1  UNL1       -0.3199
      7 C           4.8769   -1.9910   24.9329 C.3     1  UNL1        0.0368
      8 H           6.2899   -3.6900   22.2993 H       1  UNL1        0.1189
      9 H           6.0835   -4.3144   23.8296 H       1  UNL1        0.1189
     10 C           4.8241   -1.3131   34.0612 C.3     1  UNL1        0.0522
     11 C           4.1108   -0.5400   32.9918 C.ar    1  UNL1        0.0626
     12 C           3.2276    0.6140   33.3631 C.ar    1  UNL1        0.0355
     13 C           2.5143    1.3870   32.2937 C.ar    1  UNL1        0.1033
     14 N           2.6843    1.0060   30.8529 N.ar    1  UNL1       -0.2113
     15 N           2.1130    1.5778   29.5893 N.ar    1  UNL1       -0.1669
     16 C           2.6433    0.7771   28.4370 C.ar    1  UNL1        0.0954
     17 C           3.5422   -0.2896   28.9884 C.ar    1  UNL1        0.0463
     18 C           3.5675   -0.1481   30.4816 C.ar    1  UNL1        0.1619
     19 N           4.2808   -0.9211   31.5510 N.ar    1  UNL1       -0.2310
     20 C           4.0724   -1.0902   27.8362 C.3     1  UNL1        0.1038
     21 N           3.5011   -0.5184   26.5726 N.3     1  UNL1       -0.2627
     22 C           2.6179    0.6357   26.9439 C.3     1  UNL1        0.1205
     23 C           4.5628   -2.4995   21.0095 C.ar    1  UNL1        0.0355
     24 C           4.3549   -3.9472   20.6765 C.ar    1  UNL1        0.0300
     25 C           4.6203   -4.4424   19.2857 C.ar    1  UNL1        0.1400
     26 F           4.4124   -5.8902   18.9527 F       1  UNL1       -0.2042
     27 C           5.0936   -3.4901   18.2280 C.ar    1  UNL1        0.0319
     28 C           5.3015   -2.0424   18.5610 C.ar    1  UNL1        0.0317
     29 C           5.0361   -1.5471   19.9517 C.ar    1  UNL1        0.1386
     30 F           5.2440   -0.0993   20.2848 F       1  UNL1       -0.2044
@<TRIPOS>BOND
     1    10    11    1
     2    11    12   ar
     3    12    13   ar
     4    13    14   ar
     5    14    15   ar
     6    15    16   ar
     7    16    17   ar
     8    17    18   ar
     9    18    19   ar
    10    17    20    1
    11    20    21    1
    12     1    21    1
    13     1     2    1
    14     2     3    1
    15     3     4    1
    16     4    23    1
    17    23    24   ar
    18    24    25   ar
    19    25    26    1
    20    25    27   ar
    21    27    28   ar
    22    28    29   ar
    23    29    30    1
    24     4     5    1
    25     5     6    1
    26     5     7    1
    27    21    22    1
    28    19    11   ar
    29     7     1    1
    30    18    14   ar
    31    29    23   ar
    32    22    16    1
    33     6     8    1
    34     6     9    1
