@<TRIPOS>MOLECULE
*****
 40 43 0 0 0
SMALL
GASTEIGER

@<TRIPOS>ATOM
      1 C           0.8730    0.5977   28.1763 C.2     1  UNL1        0.4050
      2 O           2.1504    0.0290   28.7190 O.2     1  UNL1       -0.2262
      3 N           0.8359    1.1698   26.7902 N.am    1  UNL1       -0.2443
      4 C          -0.4416    1.7385   26.2474 C.3     1  UNL1        0.0969
      5 C          -0.4786    2.3106   24.8613 C.3     1  UNL1        0.0247
      6 C           0.7617    2.3139   24.0179 C.3     1  UNL1        0.0374
      7 C           2.0392    1.7452   24.5606 C.3     1  UNL1        0.0943
      8 C           2.0763    1.1731   25.9468 C.3     1  UNL1        0.1163
      9 N           3.2797    1.7485   23.7172 N.am    1  UNL1       -0.2885
     10 C           3.7076    0.4981   23.0078 C.2     1  UNL1        0.3059
     11 O           2.8952   -0.7557   23.1417 O.2     1  UNL1       -0.2524
     12 N           4.9481    0.5014   22.1644 N.am    1  UNL1       -0.2485
     13 H           3.8130    2.5714   23.6293 H       1  UNL1        0.1510
     14 H           5.4814    1.3243   22.0765 H       1  UNL1        0.1583
     15 C           5.3761   -0.7490   21.4550 C.ar    1  UNL1        0.1664
     16 N           4.5568   -1.5274   20.4686 N.ar    1  UNL1       -0.2282
     17 C           5.3728   -2.7000   20.0114 C.ar    1  UNL1        0.0701
     18 C           4.9410   -3.7432   19.0238 C.3     1  UNL1        0.0528
     19 C           6.6964   -2.6463   20.7151 C.ar    1  UNL1        0.0803
     20 S           6.6984   -1.4405   21.6073 S.2     1  UNL1       -0.0488
     21 C           7.8206   -3.6264   20.5548 C.2     1  UNL1        0.1807
     22 C           9.1344   -3.1747   19.9893 C.3     1  UNL1        0.0779
     23 O           7.6309   -5.0581   20.9600 O.2     1  UNL1       -0.2908
     24 C          -1.3587   -0.5241   28.8912 C.3     1  UNL1        0.2573
     25 O          -0.3674    0.5943   29.0197 O.3     1  UNL1       -0.4304
     26 C           0.7247    2.8860   22.6318 C.3     1  UNL1        0.0738
     27 N           1.0614    2.0204   21.4539 N.3     1  UNL1       -0.2726
     28 C           0.3781    0.6969   21.2761 C.3     1  UNL1        0.0721
     29 C           0.7148   -0.1687   20.0982 C.3     1  UNL1        0.0174
     30 C           1.7347    0.2892   19.0982 C.3     1  UNL1        0.0031
     31 C           2.4179    1.6126   19.2759 C.3     1  UNL1        0.0204
     32 C           2.0813    2.4783   20.4538 C.3     1  UNL1        0.0724
     33 C           3.4379    2.0705   18.2759 C.3     1  UNL1        0.0277
     34 C           4.8357    1.5289   18.3286 C.ar    1  UNL1       -0.0220
     35 C           5.2002    0.3144   17.5272 C.ar    1  UNL1       -0.0020
     36 C           6.5980   -0.2271   17.5799 C.ar    1  UNL1        0.0293
     37 C           7.6314    0.4458   18.4339 C.ar    1  UNL1        0.1401
     38 F           9.0292   -0.0957   18.4866 F       1  UNL1       -0.2042
     39 C           7.2669    1.6603   19.2353 C.ar    1  UNL1        0.0293
     40 C           5.8690    2.2019   19.1826 C.ar    1  UNL1       -0.0020
@<TRIPOS>BOND
     1    24    25    1
     2    25     1    1
     3     1     2    2
     4     1     3   am
     5     3     4    1
     6     4     5    1
     7     5     6    1
     8     6    26    1
     9    26    27    1
    10    27    28    1
    11    28    29    1
    12    29    30    1
    13    30    31    1
    14    31    33    1
    15    33    34    1
    16    34    35   ar
    17    35    36   ar
    18    36    37   ar
    19    37    38    1
    20    37    39   ar
    21    39    40   ar
    22    31    32    1
    23     6     7    1
    24     7     9    1
    25     9    10   am
    26    10    11    2
    27    10    12   am
    28    12    15    1
    29    15    16   ar
    30    16    17   ar
    31    17    18    1
    32    17    19   ar
    33    19    21    1
    34    21    22    1
    35    21    23    2
    36    19    20   ar
    37     7     8    1
    38     8     3    1
    39    32    27    1
    40    20    15   ar
    41    40    34   ar
    42     9    13    1
    43    12    14    1
@<TRIPOS>MOLECULE
*****
 40 43 0 0 0
SMALL
GASTEIGER

@<TRIPOS>ATOM
      1 C           4.7782    3.7579   36.8255 C.2     1  UNL1        0.4050
      2 O           4.7934    5.0313   36.0330 O.2     1  UNL1       -0.2262
      3 N           4.7604    2.4349   36.1189 N.am    1  UNL1       -0.2443
      4 C           4.7451    1.1615   36.9115 C.3     1  UNL1        0.0969
      5 C           4.7274   -0.1615   36.2049 C.3     1  UNL1        0.0247
      6 C           4.7249   -0.2111   34.7057 C.3     1  UNL1        0.0374
      7 C           4.7401    1.0623   33.9132 C.3     1  UNL1        0.0943
      8 C           4.7579    2.3853   34.6198 C.3     1  UNL1        0.1163
      9 N           4.7376    1.0127   32.4139 N.am    1  UNL1       -0.2885
     10 C           3.4395    0.9128   31.6690 C.2     1  UNL1        0.3059
     11 O           2.1439    0.8625   32.4232 O.2     1  UNL1       -0.2524
     12 N           3.4370    0.8633   30.1698 N.am    1  UNL1       -0.2485
     13 H           5.5880    1.0457   31.9189 H       1  UNL1        0.1510
     14 H           4.2874    0.8963   29.6747 H       1  UNL1        0.1583
     15 C           2.1390    0.7634   29.4248 C.ar    1  UNL1        0.1664
     16 N           0.9938   -0.1432   29.7666 N.ar    1  UNL1       -0.2282
     17 C          -0.0948    0.0857   28.7603 C.ar    1  UNL1        0.0701
     18 C          -1.4226   -0.6111   28.7241 C.3     1  UNL1        0.0528
     19 C           0.3775    1.1337   27.7967 C.ar    1  UNL1        0.0803
     20 S           1.7581    1.5525   28.2074 S.2     1  UNL1       -0.0488
     21 C          -0.3950    1.6689   26.6276 C.2     1  UNL1        0.1807
     22 C          -1.4114    2.7528   26.8332 C.3     1  UNL1        0.0779
     23 O          -0.1512    1.1202   25.2530 O.2     1  UNL1       -0.2908
     24 C           3.4897    3.9651   39.0721 C.3     1  UNL1        0.2573
     25 O           4.7807    3.8076   38.3247 O.3     1  UNL1       -0.4304
     26 C           4.7071   -1.5341   33.9991 C.3     1  UNL1        0.0738
     27 N           5.9449   -2.0369   33.3171 N.3     1  UNL1       -0.2726
     28 C           7.2272   -1.2662   33.4268 C.3     1  UNL1        0.0721
     29 C           8.4649   -1.7690   32.7448 C.3     1  UNL1        0.0174
     30 C           8.4205   -3.0423   31.9531 C.3     1  UNL1        0.0031
     31 C           7.1383   -3.8129   31.8435 C.3     1  UNL1        0.0204
     32 C           5.9004   -3.3102   32.5255 C.3     1  UNL1        0.0724
     33 C           7.0939   -5.0862   31.0519 C.3     1  UNL1        0.0277
     34 C           7.0139   -5.0362   29.5548 C.ar    1  UNL1       -0.0220
     35 C           7.4115   -6.2327   28.7421 C.ar    1  UNL1       -0.0020
     36 C           7.3316   -6.1827   27.2451 C.ar    1  UNL1        0.0293
     37 C           6.8540   -4.9363   26.5608 C.ar    1  UNL1        0.1401
     38 F           6.7741   -4.8863   25.0638 F       1  UNL1       -0.2042
     39 C           6.4564   -3.7399   27.3734 C.ar    1  UNL1        0.0293
     40 C           6.5364   -3.7898   28.8705 C.ar    1  UNL1       -0.0020
@<TRIPOS>BOND
     1    24    25    1
     2    25     1    1
     3     1     2    2
     4     1     3   am
     5     3     4    1
     6     4     5    1
     7     5     6    1
     8     6    26    1
     9    26    27    1
    10    27    28    1
    11    28    29    1
    12    29    30    1
    13    30    31    1
    14    31    33    1
    15    33    34    1
    16    34    35   ar
    17    35    36   ar
    18    36    37   ar
    19    37    38    1
    20    37    39   ar
    21    39    40   ar
    22    31    32    1
    23     6     7    1
    24     7     9    1
    25     9    10   am
    26    10    11    2
    27    10    12   am
    28    12    15    1
    29    15    16   ar
    30    16    17   ar
    31    17    18    1
    32    17    19   ar
    33    19    21    1
    34    21    22    1
    35    21    23    2
    36    19    20   ar
    37     7     8    1
    38     8     3    1
    39    32    27    1
    40    20    15   ar
    41    40    34   ar
    42     9    13    1
    43    12    14    1
@<TRIPOS>MOLECULE
*****
 40 43 0 0 0
SMALL
GASTEIGER

@<TRIPOS>ATOM
      1 C           7.6964   -5.9779   29.2775 C.2     1  UNL1        0.4050
      2 O           6.8867   -6.1902   30.5222 O.2     1  UNL1       -0.2262
      3 N           7.6791   -4.6449   28.5898 N.am    1  UNL1       -0.2443
      4 C           8.4888   -4.4326   27.3452 C.3     1  UNL1        0.0969
      5 C           8.4714   -3.0996   26.6574 C.3     1  UNL1        0.0247
      6 C           7.6443   -1.9790   27.2144 C.3     1  UNL1        0.0374
      7 C           6.8346   -2.1914   28.4590 C.3     1  UNL1        0.0943
      8 C           6.8520   -3.5244   29.1467 C.3     1  UNL1        0.1163
      9 N           6.0075   -1.0708   29.0160 N.am    1  UNL1       -0.2885
     10 C           4.5753   -0.9161   28.5977 C.2     1  UNL1        0.3059
     11 O           3.9703   -1.8818   27.6225 O.2     1  UNL1       -0.2524
     12 N           3.7482    0.2045   29.1547 N.am    1  UNL1       -0.2485
     13 H           6.4046   -0.4369   29.6561 H       1  UNL1        0.1510
     14 H           4.1453    0.8384   29.7948 H       1  UNL1        0.1583
     15 C           2.3161    0.3593   28.7365 C.ar    1  UNL1        0.1664
     16 N           1.1350   -0.3149   29.3693 N.ar    1  UNL1       -0.2282
     17 C          -0.0975    0.1246   28.6358 C.ar    1  UNL1        0.0701
     18 C          -1.5027   -0.3061   28.9358 C.3     1  UNL1        0.0528
     19 C           0.3219    1.0704   27.5497 C.ar    1  UNL1        0.0803
     20 S           1.8136    1.2155   27.6119 S.2     1  UNL1       -0.0488
     21 C          -0.5902    1.7515   26.5729 C.2     1  UNL1        0.1807
     22 C          -1.5704    2.7801   27.0538 C.3     1  UNL1        0.0779
     23 O          -0.5221    1.4041   25.1153 O.2     1  UNL1       -0.2908
     24 C           8.0092   -7.9093   27.5682 C.3     1  UNL1        0.2573
     25 O           8.5235   -7.0984   28.7206 O.3     1  UNL1       -0.4304
     26 C           7.6269   -0.6461   26.5266 C.3     1  UNL1        0.0738
     27 N           6.4048   -0.2045   25.7775 N.3     1  UNL1       -0.2726
     28 C           5.8649    1.1812   25.9733 C.3     1  UNL1        0.0721
     29 C           4.6427    1.6228   25.2242 C.3     1  UNL1        0.0174
     30 C           3.9603    0.6787   24.2793 C.3     1  UNL1        0.0031
     31 C           4.5001   -0.7070   24.0834 C.3     1  UNL1        0.0204
     32 C           5.7223   -1.1487   24.8326 C.3     1  UNL1        0.0724
     33 C           3.8177   -1.6512   23.1385 C.3     1  UNL1        0.0277
     34 C           3.6557   -1.2801   21.6942 C.ar    1  UNL1       -0.0220
     35 C           2.3060   -0.8937   21.1659 C.ar    1  UNL1       -0.0020
     36 C           2.1440   -0.5226   19.7216 C.ar    1  UNL1        0.0293
     37 C           3.3316   -0.5380   18.8056 C.ar    1  UNL1        0.1401
     38 F           3.1696   -0.1669   17.3613 F       1  UNL1       -0.2042
     39 C           4.6813   -0.9244   19.3338 C.ar    1  UNL1        0.0293
     40 C           4.8433   -1.2955   20.7781 C.ar    1  UNL1       -0.0020
@<TRIPOS>BOND
     1    24    25    1
     2    25     1    1
     3     1     2    2
     4     1     3   am
     5     3     4    1
     6     4     5    1
     7     5     6    1
     8     6    26    1
     9    26    27    1
    10    27    28    1
    11    28    29    1
    12    29    30    1
    13    30    31    1
    14    31    33    1
    15    33    34    1
    16    34    35   ar
    17    35    36   ar
    18    36    37   ar
    19    37    38    1
    20    37    39   ar
    21    39    40   ar
    22    31    32    1
    23     6     7    1
    24     7     9    1
    25     9    10   am
    26    10    11    2
    27    10    12   am
    28    12    15    1
    29    15    16   ar
    30    16    17   ar
    31    17    18    1
    32    17    19   ar
    33    19    21    1
    34    21    22    1
    35    21    23    2
    36    19    20   ar
    37     7     8    1
    38     8     3    1
    39    32    27    1
    40    20    15   ar
    41    40    34   ar
    42     9    13    1
    43    12    14    1
@<TRIPOS>MOLECULE
*****
 40 43 0 0 0
SMALL
GASTEIGER

@<TRIPOS>ATOM
      1 C           8.4126   -5.4819   28.2449 C.2     1  UNL1        0.4050
      2 O           7.7929   -6.6789   27.5868 O.2     1  UNL1       -0.2262
      3 N           7.9092   -4.1056   27.9249 N.am    1  UNL1       -0.2443
      4 C           8.5288   -2.9086   28.5830 C.3     1  UNL1        0.0969
      5 C           8.0254   -1.5323   28.2630 C.3     1  UNL1        0.0247
      6 C           6.9024   -1.3530   27.2850 C.3     1  UNL1        0.0374
      7 C           6.2827   -2.5500   26.6269 C.3     1  UNL1        0.0943
      8 C           6.7861   -3.9263   26.9469 C.3     1  UNL1        0.1163
      9 N           5.1597   -2.3708   25.6488 N.am    1  UNL1       -0.2885
     10 C           5.3752   -2.6738   24.1956 C.2     1  UNL1        0.3059
     11 O           6.7137   -3.1560   23.7205 O.2     1  UNL1       -0.2524
     12 N           4.2521   -2.4946   23.2175 N.am    1  UNL1       -0.2485
     13 H           4.2811   -2.0543   25.9606 H       1  UNL1        0.1510
     14 H           3.3735   -2.1781   23.5293 H       1  UNL1        0.1583
     15 C           4.4676   -2.7975   21.7643 C.ar    1  UNL1        0.1664
     16 N           4.4131   -4.1554   21.1293 N.ar    1  UNL1       -0.2282
     17 C           4.6873   -3.9929   19.6635 C.ar    1  UNL1        0.0701
     18 C           4.7300   -5.0952   18.6471 C.3     1  UNL1        0.0528
     19 C           4.9112   -2.5346   19.3927 C.ar    1  UNL1        0.0803
     20 S           4.7755   -1.7959   20.6910 S.2     1  UNL1       -0.0488
     21 C           5.2172   -1.9226   18.0578 C.2     1  UNL1        0.1807
     22 C           4.1955   -1.0621   17.3754 C.3     1  UNL1        0.0779
     23 O           6.5448   -2.1712   17.4054 O.2     1  UNL1       -0.2908
     24 C           9.4435   -6.7158   30.2856 C.3     1  UNL1        0.2573
     25 O           9.5356   -5.6612   29.2230 O.3     1  UNL1       -0.4304
     26 C           6.3990    0.0233   26.9650 C.3     1  UNL1        0.0738
     27 N           6.1099    0.4045   25.5434 N.3     1  UNL1       -0.2726
     28 C           7.1952    0.3278   24.5107 C.3     1  UNL1        0.0721
     29 C           6.9061    0.7090   23.0891 C.3     1  UNL1        0.0174
     30 C           5.5317    1.1668   22.7000 C.3     1  UNL1        0.0031
     31 C           4.4464    1.2434   23.7325 C.3     1  UNL1        0.0204
     32 C           4.7354    0.8622   25.1542 C.3     1  UNL1        0.0724
     33 C           3.0720    1.7012   23.3434 C.3     1  UNL1        0.0277
     34 C           2.5344    1.3852   21.9792 C.ar    1  UNL1       -0.0220
     35 C           1.8478    0.0752   21.7285 C.ar    1  UNL1       -0.0020
     36 C           1.3103   -0.2408   20.3643 C.ar    1  UNL1        0.0293
     37 C           1.4592    0.7531   19.2507 C.ar    1  UNL1        0.1401
     38 F           0.9217    0.4371   17.8865 F       1  UNL1       -0.2042
     39 C           2.1458    2.0629   19.5013 C.ar    1  UNL1        0.0293
     40 C           2.6834    2.3790   20.8656 C.ar    1  UNL1       -0.0020
@<TRIPOS>BOND
     1    24    25    1
     2    25     1    1
     3     1     2    2
     4     1     3   am
     5     3     4    1
     6     4     5    1
     7     5     6    1
     8     6    26    1
     9    26    27    1
    10    27    28    1
    11    28    29    1
    12    29    30    1
    13    30    31    1
    14    31    33    1
    15    33    34    1
    16    34    35   ar
    17    35    36   ar
    18    36    37   ar
    19    37    38    1
    20    37    39   ar
    21    39    40   ar
    22    31    32    1
    23     6     7    1
    24     7     9    1
    25     9    10   am
    26    10    11    2
    27    10    12   am
    28    12    15    1
    29    15    16   ar
    30    16    17   ar
    31    17    18    1
    32    17    19   ar
    33    19    21    1
    34    21    22    1
    35    21    23    2
    36    19    20   ar
    37     7     8    1
    38     8     3    1
    39    32    27    1
    40    20    15   ar
    41    40    34   ar
    42     9    13    1
    43    12    14    1
@<TRIPOS>MOLECULE
*****
 40 43 0 0 0
SMALL
GASTEIGER

@<TRIPOS>ATOM
      1 C           0.7764    0.2128   29.2788 C.2     1  UNL1        0.4050
      2 O           1.6494   -0.5133   30.2589 O.2     1  UNL1       -0.2262
      3 N           1.3476    0.6925   27.9775 N.am    1  UNL1       -0.2443
      4 C           0.4745    1.4186   26.9974 C.3     1  UNL1        0.0969
      5 C           1.0458    1.8983   25.6960 C.3     1  UNL1        0.0247
      6 C           2.4900    1.6519   25.3747 C.3     1  UNL1        0.0374
      7 C           3.3631    0.9258   26.3547 C.3     1  UNL1        0.0943
      8 C           2.7919    0.4461   27.6561 C.3     1  UNL1        0.1163
      9 N           4.8075    0.6793   26.0334 N.am    1  UNL1       -0.2885
     10 C           5.2281   -0.6246   25.4229 C.2     1  UNL1        0.3059
     11 O           4.2044   -1.6821   25.1336 O.2     1  UNL1       -0.2524
     12 N           6.6724   -0.8710   25.1016 N.am    1  UNL1       -0.2485
     13 H           5.4793    1.3734   26.2233 H       1  UNL1        0.1510
     14 H           7.3443   -0.1770   25.2914 H       1  UNL1        0.1583
     15 C           7.0930   -2.1750   24.4910 C.ar    1  UNL1        0.1664
     16 N           7.3234   -3.4604   25.2290 N.ar    1  UNL1       -0.2282
     17 C           7.7299   -4.5023   24.2294 C.ar    1  UNL1        0.0701
     18 C           8.0579   -5.9343   24.5323 C.3     1  UNL1        0.0528
     19 C           7.7507   -3.8608   22.8736 C.ar    1  UNL1        0.0803
     20 S           7.3571   -2.4224   23.0353 S.2     1  UNL1       -0.0488
     21 C           8.1032   -4.5387   21.5827 C.2     1  UNL1        0.1807
     22 C           9.5355   -4.8538   21.2679 C.3     1  UNL1        0.0779
     23 O           7.0234   -4.9013   20.6068 O.2     1  UNL1       -0.2908
     24 C          -1.7220   -0.4710   29.0769 C.3     1  UNL1        0.2573
     25 O          -0.6679    0.4592   29.6002 O.3     1  UNL1       -0.4304
     26 C           3.0613    2.1316   24.0733 C.3     1  UNL1        0.0738
     27 N           2.2889    1.9451   22.8011 N.3     1  UNL1       -0.2726
     28 C           1.4769    3.0766   22.2439 C.3     1  UNL1        0.0721
     29 C           0.7046    2.8901   20.9716 C.3     1  UNL1        0.0174
     30 C           0.7441    1.5721   20.2565 C.3     1  UNL1        0.0031
     31 C           1.5561    0.4406   20.8137 C.3     1  UNL1        0.0204
     32 C           2.3285    0.6271   22.0860 C.3     1  UNL1        0.0724
     33 C           1.5956   -0.8774   20.0986 C.3     1  UNL1        0.0277
     34 C           2.8681   -1.3441   19.4561 C.ar    1  UNL1       -0.0220
     35 C           3.6699   -0.4016   18.6082 C.ar    1  UNL1       -0.0020
     36 C           4.9424   -0.8684   17.9657 C.ar    1  UNL1        0.0293
     37 C           5.4132   -2.2777   18.1710 C.ar    1  UNL1        0.1401
     38 F           6.6857   -2.7444   17.5286 F       1  UNL1       -0.2042
     39 C           4.6115   -3.2202   19.0189 C.ar    1  UNL1        0.0293
     40 C           3.3390   -2.7535   19.6615 C.ar    1  UNL1       -0.0020
@<TRIPOS>BOND
     1    24    25    1
     2    25     1    1
     3     1     2    2
     4     1     3   am
     5     3     4    1
     6     4     5    1
     7     5     6    1
     8     6    26    1
     9    26    27    1
    10    27    28    1
    11    28    29    1
    12    29    30    1
    13    30    31    1
    14    31    33    1
    15    33    34    1
    16    34    35   ar
    17    35    36   ar
    18    36    37   ar
    19    37    38    1
    20    37    39   ar
    21    39    40   ar
    22    31    32    1
    23     6     7    1
    24     7     9    1
    25     9    10   am
    26    10    11    2
    27    10    12   am
    28    12    15    1
    29    15    16   ar
    30    16    17   ar
    31    17    18    1
    32    17    19   ar
    33    19    21    1
    34    21    22    1
    35    21    23    2
    36    19    20   ar
    37     7     8    1
    38     8     3    1
    39    32    27    1
    40    20    15   ar
    41    40    34   ar
    42     9    13    1
    43    12    14    1
@<TRIPOS>MOLECULE
*****
 40 43 0 0 0
SMALL
GASTEIGER

@<TRIPOS>ATOM
      1 C         -16.0393    3.5736   20.5397 C.2     1  UNL1        0.4050
      2 O         -14.8408    4.1673   19.8607 O.2     1  UNL1       -0.2262
      3 N         -16.5643    2.2383   20.1023 N.am    1  UNL1       -0.2443
      4 C         -17.7628    1.6447   20.7813 C.3     1  UNL1        0.0969
      5 C         -18.2878    0.3093   20.3439 C.3     1  UNL1        0.0247
      6 C         -17.6143   -0.4323   19.2276 C.3     1  UNL1        0.0374
      7 C         -16.4158    0.1613   18.5487 C.3     1  UNL1        0.0943
      8 C         -15.8908    1.4966   18.9860 C.3     1  UNL1        0.1163
      9 N         -15.7422   -0.5804   17.4323 N.am    1  UNL1       -0.2885
     10 C         -14.4877   -1.3586   17.6984 C.2     1  UNL1        0.3059
     11 O         -13.9069   -1.3951   19.0809 O.2     1  UNL1       -0.2524
     12 N         -13.8141   -2.1003   16.5820 N.am    1  UNL1       -0.2485
     13 H         -16.1234   -0.5564   16.5249 H       1  UNL1        0.1510
     14 H         -14.1954   -2.0763   15.6747 H       1  UNL1        0.1583
     15 C         -12.5597   -2.8784   16.8482 C.ar    1  UNL1        0.1664
     16 N         -11.2566   -2.7258   16.1212 N.ar    1  UNL1       -0.2282
     17 C         -10.2797   -3.6989   16.7117 C.ar    1  UNL1        0.0701
     18 C          -8.8537   -3.8852   16.2852 C.3     1  UNL1        0.0528
     19 C         -10.9791   -4.4530   17.8037 C.ar    1  UNL1        0.0803
     20 S         -12.3882   -3.9459   17.8880 S.2     1  UNL1       -0.0488
     21 C         -10.3753   -5.5257   18.6608 C.2     1  UNL1        0.1807
     22 C         -10.9336   -6.9174   18.6247 C.3     1  UNL1        0.0779
     23 O          -9.2132   -5.2067   19.5540 O.2     1  UNL1       -0.2908
     24 C         -15.9478    5.3327   22.4494 C.3     1  UNL1        0.2573
     25 O         -16.7128    4.3153   21.6560 O.3     1  UNL1       -0.4304
     26 C         -18.1393   -1.7677   18.7903 C.3     1  UNL1        0.0738
     27 N         -17.3054   -3.0000   18.9796 N.3     1  UNL1       -0.2726
     28 C         -16.4276   -3.1332   20.1887 C.3     1  UNL1        0.0721
     29 C         -15.5937   -4.3655   20.3780 C.3     1  UNL1        0.0174
     30 C         -15.6375   -5.4648   19.3583 C.3     1  UNL1        0.0031
     31 C         -16.5153   -5.3316   18.1493 C.3     1  UNL1        0.0204
     32 C         -17.3493   -4.0993   17.9599 C.3     1  UNL1        0.0724
     33 C         -16.5592   -6.4309   17.1296 C.3     1  UNL1        0.0277
     34 C         -16.6186   -7.8627   17.5724 C.ar    1  UNL1       -0.0220
     35 C         -17.9184   -8.4513   18.0354 C.ar    1  UNL1       -0.0020
     36 C         -17.9778   -9.8832   18.4782 C.ar    1  UNL1        0.0293
     37 C         -16.7375  -10.7266   18.4581 C.ar    1  UNL1        0.1401
     38 F         -16.7969  -12.1584   18.9010 F       1  UNL1       -0.2042
     39 C         -15.4378  -10.1381   17.9952 C.ar    1  UNL1        0.0293
     40 C         -15.3783   -8.7061   17.5523 C.ar    1  UNL1       -0.0020
@<TRIPOS>BOND
     1    24    25    1
     2    25     1    1
     3     1     2    2
     4     1     3   am
     5     3     4    1
     6     4     5    1
     7     5     6    1
     8     6    26    1
     9    26    27    1
    10    27    28    1
    11    28    29    1
    12    29    30    1
    13    30    31    1
    14    31    33    1
    15    33    34    1
    16    34    35   ar
    17    35    36   ar
    18    36    37   ar
    19    37    38    1
    20    37    39   ar
    21    39    40   ar
    22    31    32    1
    23     6     7    1
    24     7     9    1
    25     9    10   am
    26    10    11    2
    27    10    12   am
    28    12    15    1
    29    15    16   ar
    30    16    17   ar
    31    17    18    1
    32    17    19   ar
    33    19    21    1
    34    21    22    1
    35    21    23    2
    36    19    20   ar
    37     7     8    1
    38     8     3    1
    39    32    27    1
    40    20    15   ar
    41    40    34   ar
    42     9    13    1
    43    12    14    1
@<TRIPOS>MOLECULE
*****
 40 43 0 0 0
SMALL
GASTEIGER

@<TRIPOS>ATOM
      1 C           2.5397   -0.0980   30.0596 C.2     1  UNL1        0.4050
      2 O           1.1094   -0.4757   29.8116 O.2     1  UNL1       -0.2262
      3 N           3.5707   -0.3239   28.9937 N.am    1  UNL1       -0.2443
      4 C           5.0010    0.0538   29.2417 C.3     1  UNL1        0.0969
      5 C           6.0319   -0.1720   28.1758 C.3     1  UNL1        0.0247
      6 C           5.6326   -0.7755   26.8620 C.3     1  UNL1        0.0374
      7 C           4.2023   -1.1531   26.6140 C.3     1  UNL1        0.0943
      8 C           3.1713   -0.9273   27.6798 C.3     1  UNL1        0.1163
      9 N           3.8029   -1.7566   25.3000 N.am    1  UNL1       -0.2885
     10 C           3.6064   -0.8783   24.1001 C.2     1  UNL1        0.3059
     11 O           3.8093    0.6035   24.2140 O.2     1  UNL1       -0.2524
     12 N           3.2070   -1.4818   22.7862 N.am    1  UNL1       -0.2485
     13 H           3.6698   -2.7292   25.2252 H       1  UNL1        0.1510
     14 H           3.0739   -2.4544   22.7114 H       1  UNL1        0.1583
     15 C           3.0105   -0.6035   21.5862 C.ar    1  UNL1        0.1664
     16 N           1.7492   -0.4753   20.7845 N.ar    1  UNL1       -0.2282
     17 C           1.9999    0.5083   19.6801 C.ar    1  UNL1        0.0701
     18 C           1.0085    0.9369   18.6393 C.3     1  UNL1        0.0528
     19 C           3.4162    0.9880   19.7993 C.ar    1  UNL1        0.0803
     20 S           4.0407    0.3009   20.9773 S.2     1  UNL1       -0.0488
     21 C           4.0896    1.9806   18.8986 C.2     1  UNL1        0.1807
     22 C           5.3924    1.6334   18.2410 C.3     1  UNL1        0.0779
     23 O           3.4603    3.3203   18.6553 O.2     1  UNL1       -0.2908
     24 C           3.5176   -0.3616   32.4521 C.3     1  UNL1        0.2573
     25 O           2.9390    0.5054   31.3735 O.3     1  UNL1       -0.4304
     26 C           6.6636   -1.0013   25.7961 C.3     1  UNL1        0.0738
     27 N           6.8661   -2.3744   25.2274 N.3     1  UNL1       -0.2726
     28 C           6.8126   -3.5740   26.1265 C.3     1  UNL1        0.0721
     29 C           7.0152   -4.9471   25.5579 C.3     1  UNL1        0.0174
     30 C           7.2712   -5.1208   24.0901 C.3     1  UNL1        0.0031
     31 C           7.3248   -3.9214   23.1911 C.3     1  UNL1        0.0204
     32 C           7.1222   -2.5481   23.7597 C.3     1  UNL1        0.0724
     33 C           7.5808   -4.0951   21.7233 C.3     1  UNL1        0.0277
     34 C           6.6127   -3.5382   20.7220 C.ar    1  UNL1       -0.0220
     35 C           5.1720   -3.9542   20.7601 C.ar    1  UNL1       -0.0020
     36 C           4.2039   -3.3974   19.7588 C.ar    1  UNL1        0.0293
     37 C           4.6763   -2.4246   18.7194 C.ar    1  UNL1        0.1401
     38 F           3.7082   -1.8678   17.7181 F       1  UNL1       -0.2042
     39 C           6.1170   -2.0086   18.6813 C.ar    1  UNL1        0.0293
     40 C           7.0852   -2.5654   19.6826 C.ar    1  UNL1       -0.0020
@<TRIPOS>BOND
     1    24    25    1
     2    25     1    1
     3     1     2    2
     4     1     3   am
     5     3     4    1
     6     4     5    1
     7     5     6    1
     8     6    26    1
     9    26    27    1
    10    27    28    1
    11    28    29    1
    12    29    30    1
    13    30    31    1
    14    31    33    1
    15    33    34    1
    16    34    35   ar
    17    35    36   ar
    18    36    37   ar
    19    37    38    1
    20    37    39   ar
    21    39    40   ar
    22    31    32    1
    23     6     7    1
    24     7     9    1
    25     9    10   am
    26    10    11    2
    27    10    12   am
    28    12    15    1
    29    15    16   ar
    30    16    17   ar
    31    17    18    1
    32    17    19   ar
    33    19    21    1
    34    21    22    1
    35    21    23    2
    36    19    20   ar
    37     7     8    1
    38     8     3    1
    39    32    27    1
    40    20    15   ar
    41    40    34   ar
    42     9    13    1
    43    12    14    1
@<TRIPOS>MOLECULE
*****
 40 43 0 0 0
SMALL
GASTEIGER

@<TRIPOS>ATOM
      1 C           0.2266    1.1687   28.0346 C.2     1  UNL1        0.4050
      2 O          -0.3185    2.0964   26.9896 O.2     1  UNL1       -0.2262
      3 N           1.6047    0.5960   27.8838 N.am    1  UNL1       -0.2443
      4 C           2.1498   -0.3318   28.9288 C.3     1  UNL1        0.0969
      5 C           3.5280   -0.9045   28.7781 C.3     1  UNL1        0.0247
      6 C           4.3610   -0.5495   27.5823 C.3     1  UNL1        0.0374
      7 C           3.8159    0.3783   26.5373 C.3     1  UNL1        0.0943
      8 C           2.4378    0.9510   26.6880 C.3     1  UNL1        0.1163
      9 N           4.6490    0.7334   25.3414 N.am    1  UNL1       -0.2885
     10 C           4.3338    0.1339   24.0031 C.2     1  UNL1        0.3059
     11 O           3.1855   -0.8206   23.8605 O.2     1  UNL1       -0.2524
     12 N           5.1668    0.4890   22.8072 N.am    1  UNL1       -0.2485
     13 H           5.4026    1.3598   25.4350 H       1  UNL1        0.1510
     14 H           5.9205    1.1155   22.9008 H       1  UNL1        0.1583
     15 C           4.8516   -0.1105   21.4689 C.ar    1  UNL1        0.1664
     16 N           3.9778    0.4996   20.4133 N.ar    1  UNL1       -0.2282
     17 C           3.9409   -0.4381   19.2431 C.ar    1  UNL1        0.0701
     18 C           3.1856   -0.2238   17.9650 C.3     1  UNL1        0.0528
     19 C           4.7920   -1.6278   19.5755 C.ar    1  UNL1        0.0803
     20 S           5.3548   -1.4253   20.9511 S.2     1  UNL1       -0.0488
     21 C           5.0372   -2.8120   18.6881 C.2     1  UNL1        0.1807
     22 C           4.3366   -4.1103   18.9593 C.3     1  UNL1        0.0779
     23 O           5.9831   -2.6980   17.5294 O.2     1  UNL1       -0.2908
     24 C          -1.6957   -0.2103   29.1083 C.3     1  UNL1        0.2573
     25 O          -0.6064    0.8137   29.2304 O.3     1  UNL1       -0.4304
     26 C           5.7392   -1.1222   27.4316 C.3     1  UNL1        0.0738
     27 N           6.0850   -2.4267   28.0862 N.3     1  UNL1       -0.2726
     28 C           6.2327   -3.6669   27.2555 C.3     1  UNL1        0.0721
     29 C           6.5785   -4.9714   27.9102 C.3     1  UNL1        0.0174
     30 C           6.7767   -5.0357   29.3956 C.3     1  UNL1        0.0031
     31 C           6.6290   -3.7956   30.2264 C.3     1  UNL1        0.0204
     32 C           6.2832   -2.4910   29.5717 C.3     1  UNL1        0.0724
     33 C           6.8272   -3.8600   31.7119 C.3     1  UNL1        0.0277
     34 C           6.3732   -2.7234   32.5790 C.ar    1  UNL1       -0.0220
     35 C           4.9556   -2.6719   33.0668 C.ar    1  UNL1       -0.0020
     36 C           4.5016   -1.5353   33.9340 C.ar    1  UNL1        0.0293
     37 C           5.4651   -0.4501   34.3133 C.ar    1  UNL1        0.1401
     38 F           5.0111    0.6865   35.1805 F       1  UNL1       -0.2042
     39 C           6.8826   -0.5015   33.8255 C.ar    1  UNL1        0.0293
     40 C           7.3367   -1.6381   32.9583 C.ar    1  UNL1       -0.0020
@<TRIPOS>BOND
     1    24    25    1
     2    25     1    1
     3     1     2    2
     4     1     3   am
     5     3     4    1
     6     4     5    1
     7     5     6    1
     8     6    26    1
     9    26    27    1
    10    27    28    1
    11    28    29    1
    12    29    30    1
    13    30    31    1
    14    31    33    1
    15    33    34    1
    16    34    35   ar
    17    35    36   ar
    18    36    37   ar
    19    37    38    1
    20    37    39   ar
    21    39    40   ar
    22    31    32    1
    23     6     7    1
    24     7     9    1
    25     9    10   am
    26    10    11    2
    27    10    12   am
    28    12    15    1
    29    15    16   ar
    30    16    17   ar
    31    17    18    1
    32    17    19   ar
    33    19    21    1
    34    21    22    1
    35    21    23    2
    36    19    20   ar
    37     7     8    1
    38     8     3    1
    39    32    27    1
    40    20    15   ar
    41    40    34   ar
    42     9    13    1
    43    12    14    1
@<TRIPOS>MOLECULE
*****
 40 43 0 0 0
SMALL
GASTEIGER

@<TRIPOS>ATOM
      1 C           7.8474   -5.8242   26.6421 C.2     1  UNL1        0.4050
      2 O           7.5297   -5.6637   28.0992 O.2     1  UNL1       -0.2262
      3 N           7.6537   -4.6725   25.7009 N.am    1  UNL1       -0.2443
      4 C           7.9713   -4.8330   24.2437 C.3     1  UNL1        0.0969
      5 C           7.7777   -3.6812   23.3025 C.3     1  UNL1        0.0247
      6 C           7.2664   -2.3689   23.8185 C.3     1  UNL1        0.0374
      7 C           6.9488   -2.2083   25.2756 C.3     1  UNL1        0.0943
      8 C           7.1424   -3.3601   26.2168 C.3     1  UNL1        0.1163
      9 N           6.4375   -0.8959   25.7916 N.am    1  UNL1       -0.2885
     10 C           4.9761   -0.7220   26.0817 C.2     1  UNL1        0.3059
     11 O           4.0260   -1.8606   25.8559 O.2     1  UNL1       -0.2524
     12 N           4.4648    0.5904   26.5977 N.am    1  UNL1       -0.2485
     13 H           7.0611   -0.1486   25.9398 H       1  UNL1        0.1510
     14 H           5.0884    1.3377   26.7460 H       1  UNL1        0.1583
     15 C           3.0035    0.7642   26.8878 C.ar    1  UNL1        0.1664
     16 N           1.9943    1.4027   25.9802 N.ar    1  UNL1       -0.2282
     17 C           0.6618    1.3632   26.6679 C.ar    1  UNL1        0.0701
     18 C          -0.6296    1.8935   26.1193 C.3     1  UNL1        0.0528
     19 C           0.8475    0.7002   28.0007 C.ar    1  UNL1        0.0803
     20 S           2.2947    0.3301   28.1365 S.2     1  UNL1       -0.0488
     21 C          -0.2256    0.4512   29.0187 C.2     1  UNL1        0.1807
     22 C          -1.3174   -0.5364   28.7313 C.3     1  UNL1        0.0779
     23 O          -0.2069    1.1899   30.3241 O.2     1  UNL1       -0.2908
     24 C           8.0392   -8.4062   26.8584 C.3     1  UNL1        0.2573
     25 O           8.3587   -7.1366   26.1262 O.3     1  UNL1       -0.4304
     26 C           7.0728   -1.2171   22.8773 C.3     1  UNL1        0.0738
     27 N           6.6925   -1.4716   21.4488 N.3     1  UNL1       -0.2726
     28 C           7.7542   -1.5444   20.3916 C.3     1  UNL1        0.0721
     29 C           7.3740   -1.7989   18.9631 C.3     1  UNL1        0.0174
     30 C           5.9320   -1.9806   18.5917 C.3     1  UNL1        0.0031
     31 C           4.8704   -1.9077   19.6489 C.3     1  UNL1        0.0204
     32 C           5.2506   -1.6532   21.0774 C.3     1  UNL1        0.0724
     33 C           3.4285   -2.0894   19.2775 C.3     1  UNL1        0.0277
     34 C           2.4800   -0.9306   19.3638 C.ar    1  UNL1       -0.0220
     35 C           2.6037    0.2132   18.4011 C.ar    1  UNL1       -0.0020
     36 C           1.6553    1.3720   18.4874 C.ar    1  UNL1        0.0293
     37 C           0.5831    1.3872   19.5363 C.ar    1  UNL1        0.1401
     38 F          -0.3653    2.5460   19.6226 F       1  UNL1       -0.2042
     39 C           0.4594    0.2435   20.4989 C.ar    1  UNL1        0.0293
     40 C           1.4079   -0.9154   20.4127 C.ar    1  UNL1       -0.0020
@<TRIPOS>BOND
     1    24    25    1
     2    25     1    1
     3     1     2    2
     4     1     3   am
     5     3     4    1
     6     4     5    1
     7     5     6    1
     8     6    26    1
     9    26    27    1
    10    27    28    1
    11    28    29    1
    12    29    30    1
    13    30    31    1
    14    31    33    1
    15    33    34    1
    16    34    35   ar
    17    35    36   ar
    18    36    37   ar
    19    37    38    1
    20    37    39   ar
    21    39    40   ar
    22    31    32    1
    23     6     7    1
    24     7     9    1
    25     9    10   am
    26    10    11    2
    27    10    12   am
    28    12    15    1
    29    15    16   ar
    30    16    17   ar
    31    17    18    1
    32    17    19   ar
    33    19    21    1
    34    21    22    1
    35    21    23    2
    36    19    20   ar
    37     7     8    1
    38     8     3    1
    39    32    27    1
    40    20    15   ar
    41    40    34   ar
    42     9    13    1
    43    12    14    1
