@<TRIPOS>MOLECULE
*****
 39 41 0 0 0
SMALL
GASTEIGER

@<TRIPOS>ATOM
      1 C          -3.8779    3.4863   24.5567 C.ar    1  UNL1        0.0696
      2 C          -4.0646    3.7204   26.0265 C.ar    1  UNL1        0.0057
      3 C          -2.8918    3.6229   26.9565 C.ar    1  UNL1       -0.0041
      4 C          -1.5321    3.2913   26.4167 C.ar    1  UNL1       -0.0185
      5 C          -1.3454    3.0572   24.9469 C.ar    1  UNL1        0.0677
      6 C          -2.5182    3.1547   24.0169 C.ar    1  UNL1        0.0095
      7 C          -0.3593    3.1938   27.3467 C.3     1  UNL1        0.0257
      8 C          -0.0199    1.8824   27.9908 C.3     1  UNL1        0.0259
      9 C           1.1530    1.7849   28.9208 C.3     1  UNL1        0.0940
     10 N           1.9865    2.9988   29.2067 N.am    1  UNL1       -0.2761
     11 C           3.1593    2.9013   30.1366 C.2     1  UNL1        0.2490
     12 O           3.9928    4.1152   30.4225 O.2     1  UNL1       -0.2699
     13 C           1.6470    4.3102   28.5625 C.3     1  UNL1        0.0940
     14 C           0.4742    4.4077   27.6325 C.3     1  UNL1        0.0259
     15 C           3.4987    1.5899   30.7808 C.ar    1  UNL1        0.0536
     16 C           4.2962    0.5677   30.0261 C.ar    1  UNL1        0.0047
     17 C           4.6356   -0.7437   30.6703 C.ar    1  UNL1        0.0046
     18 C           4.1776   -1.0330   32.0690 C.ar    1  UNL1        0.0531
     19 C           3.3802   -0.0110   32.8237 C.ar    1  UNL1        0.0046
     20 C           3.0408    1.3005   32.1795 C.ar    1  UNL1        0.0047
     21 C           4.5171   -2.3445   32.7132 C.2     1  UNL1        0.2427
     22 N           5.6311   -3.1845   32.1624 N.am    1  UNL1       -0.3253
     23 O           3.7424   -2.8160   33.9080 O.2     1  UNL1       -0.2704
     24 H           6.1396   -2.8750   31.3782 H       1  UNL1        0.1453
     25 H           5.8539   -4.0452   32.5852 H       1  UNL1        0.1453
     26 N          -6.3601    4.1200   24.1246 N.am    1  UNL1       -0.1708
     27 C          -5.0507    3.5838   23.6267 C.2     1  UNL1        0.3078
     28 O          -4.9142    3.1452   22.1988 O.2     1  UNL1       -0.2516
     29 H          -6.4498    4.4079   25.0618 H       1  UNL1        0.2545
     30 N          -8.8982    3.8101   23.6639 N.pl3   1  UNL1       -0.1313
     31 C          -7.5330    4.2175   23.1946 C.2     1  UNL1        0.3751
     32 N          -7.3406    4.7225   21.7953 N.pl3   1  UNL1       -0.2906
     33 H          -9.6680    3.8741   23.0535 H       1  UNL1        0.3060
     34 H          -8.1104    4.7865   21.1849 H       1  UNL1        0.2545
     35 H          -6.4446    4.9899   21.4873 H       1  UNL1        0.2545
     36 C           0.0143    2.7256   24.4071 C.3     1  UNL1        0.4183
     37 F           1.3739    2.3939   23.8672 F       1  UNL1       -0.1659
     38 F           0.2679    4.1817   24.1513 F       1  UNL1       -0.1659
     39 F          -0.2393    1.2695   24.6628 F       1  UNL1       -0.1659
@<TRIPOS>BOND
     1    30    31    2
     2    31    32    1
     3    31    26    1
     4    26    27   am
     5    27    28    2
     6    27     1    1
     7     1     2   ar
     8     2     3   ar
     9     3     4   ar
    10     4     7    1
    11     7     8    1
    12     8     9    1
    13     9    10    1
    14    10    11   am
    15    11    12    2
    16    11    15    1
    17    15    16   ar
    18    16    17   ar
    19    17    18   ar
    20    18    21    1
    21    21    22   am
    22    21    23    2
    23    18    19   ar
    24    19    20   ar
    25    10    13    1
    26    13    14    1
    27     4     5   ar
    28     5    36    1
    29    36    37    1
    30    36    38    1
    31    36    39    1
    32     5     6   ar
    33     6     1   ar
    34    14     7    1
    35    20    15   ar
    36    30    33    1
    37    32    34    1
    38    32    35    1
    39    26    29    1
    40    22    24    1
    41    22    25    1
@<TRIPOS>MOLECULE
*****
 39 41 0 0 0
SMALL
GASTEIGER

@<TRIPOS>ATOM
      1 C           6.8931   -4.7325   28.9741 C.ar    1  UNL1        0.0696
      2 C           7.2465   -5.0678   30.3927 C.ar    1  UNL1        0.0057
      3 C           7.1384   -4.0198   31.4604 C.ar    1  UNL1       -0.0041
      4 C           6.6769   -2.6364   31.1094 C.ar    1  UNL1       -0.0185
      5 C           6.3235   -2.3010   29.6908 C.ar    1  UNL1        0.0677
      6 C           6.4316   -3.3491   28.6231 C.ar    1  UNL1        0.0095
      7 C           6.5689   -1.5883   32.1771 C.3     1  UNL1        0.0257
      8 C           5.3706   -1.5570   33.0788 C.3     1  UNL1        0.0259
      9 C           5.2625   -0.5090   34.1464 C.3     1  UNL1        0.0940
     10 N           6.3527    0.5078   34.3124 N.am    1  UNL1       -0.2761
     11 C           6.2447    1.5558   35.3801 C.2     1  UNL1        0.2490
     12 O           7.3349    2.5726   35.5461 O.2     1  UNL1       -0.2699
     13 C           7.5510    0.4765   33.4107 C.3     1  UNL1        0.0940
     14 C           7.6591   -0.5716   32.3430 C.3     1  UNL1        0.0259
     15 C           5.0464    1.5871   36.2818 C.ar    1  UNL1        0.0536
     16 C           5.1136    0.9555   37.6407 C.ar    1  UNL1        0.0047
     17 C           3.9153    0.9868   38.5424 C.ar    1  UNL1        0.0046
     18 C           2.6498    1.6497   38.0852 C.ar    1  UNL1        0.0531
     19 C           2.5825    2.2812   36.7264 C.ar    1  UNL1        0.0046
     20 C           3.7808    2.2500   35.8246 C.ar    1  UNL1        0.0047
     21 C           1.4515    1.6809   38.9870 C.2     1  UNL1        0.2427
     22 N           0.3313    2.6400   38.7128 N.am    1  UNL1       -0.3253
     23 O           1.3734    0.7531   40.1631 O.2     1  UNL1       -0.2704
     24 H           0.3825    3.2490   37.9409 H       1  UNL1        0.1453
     25 H          -0.4552    2.6605   39.3046 H       1  UNL1        0.1453
     26 N           7.6317   -7.1055   28.2172 N.am    1  UNL1       -0.1708
     27 C           7.0011   -5.7805   27.9064 C.2     1  UNL1        0.3078
     28 O           6.4786   -5.5035   26.5279 O.2     1  UNL1       -0.2516
     29 H           7.9747   -7.2874   29.1219 H       1  UNL1        0.2545
     30 N           7.5646   -9.6016   27.4995 N.pl3   1  UNL1       -0.1313
     31 C           7.7398   -8.1536   27.1495 C.2     1  UNL1        0.3751
     32 N           8.0230   -7.7536   25.7318 N.pl3   1  UNL1       -0.2906
     33 H           7.6355  -10.2895   26.7987 H       1  UNL1        0.3060
     34 H           8.0940   -8.4414   25.0311 H       1  UNL1        0.2545
     35 H           8.1380   -6.8032   25.5021 H       1  UNL1        0.2545
     36 C           5.8620   -0.9176   29.3397 C.3     1  UNL1        0.4183
     37 F           5.4006    0.4658   28.9887 F       1  UNL1       -0.1659
     38 F           4.4526   -1.3012   29.6807 F       1  UNL1       -0.1659
     39 F           7.2715   -0.5340   28.9987 F       1  UNL1       -0.1659
@<TRIPOS>BOND
     1    30    31    2
     2    31    32    1
     3    31    26    1
     4    26    27   am
     5    27    28    2
     6    27     1    1
     7     1     2   ar
     8     2     3   ar
     9     3     4   ar
    10     4     7    1
    11     7     8    1
    12     8     9    1
    13     9    10    1
    14    10    11   am
    15    11    12    2
    16    11    15    1
    17    15    16   ar
    18    16    17   ar
    19    17    18   ar
    20    18    21    1
    21    21    22   am
    22    21    23    2
    23    18    19   ar
    24    19    20   ar
    25    10    13    1
    26    13    14    1
    27     4     5   ar
    28     5    36    1
    29    36    37    1
    30    36    38    1
    31    36    39    1
    32     5     6   ar
    33     6     1   ar
    34    14     7    1
    35    20    15   ar
    36    30    33    1
    37    32    34    1
    38    32    35    1
    39    26    29    1
    40    22    24    1
    41    22    25    1
@<TRIPOS>MOLECULE
*****
 39 41 0 0 0
SMALL
GASTEIGER

@<TRIPOS>ATOM
      1 C           0.9251    1.4245   20.4639 C.ar    1  UNL1        0.0696
      2 C           1.5074    1.6252   21.8316 C.ar    1  UNL1        0.0057
      3 C           2.7142    0.8417   22.2553 C.ar    1  UNL1       -0.0041
      4 C           3.3388   -0.1426   21.3114 C.ar    1  UNL1       -0.0185
      5 C           2.7565   -0.3433   19.9437 C.ar    1  UNL1        0.0677
      6 C           1.5497    0.4403   19.5199 C.ar    1  UNL1        0.0095
      7 C           4.5457   -0.9261   21.7351 C.3     1  UNL1        0.0257
      8 C           4.3837   -2.1530   22.5826 C.3     1  UNL1        0.0259
      9 C           5.5906   -2.9366   23.0064 C.3     1  UNL1        0.0940
     10 N           6.9594   -2.4932   22.5826 N.am    1  UNL1       -0.2761
     11 C           8.1663   -3.2767   23.0063 C.2     1  UNL1        0.2490
     12 O           9.5351   -2.8333   22.5826 O.2     1  UNL1       -0.2699
     13 C           7.1214   -1.2662   21.7351 C.3     1  UNL1        0.0940
     14 C           5.9145   -0.4827   21.3113 C.3     1  UNL1        0.0259
     15 C           8.0043   -4.5036   23.8539 C.ar    1  UNL1        0.0536
     16 C           7.4757   -4.3846   25.2527 C.ar    1  UNL1        0.0047
     17 C           7.3138   -5.6115   26.1002 C.ar    1  UNL1        0.0046
     18 C           7.6803   -6.9576   25.5490 C.ar    1  UNL1        0.0531
     19 C           8.2088   -7.0767   24.1503 C.ar    1  UNL1        0.0046
     20 C           8.3708   -5.8497   23.3027 C.ar    1  UNL1        0.0047
     21 C           7.5183   -8.1845   26.3966 C.2     1  UNL1        0.2427
     22 N           6.1725   -8.8340   26.5266 N.am    1  UNL1       -0.3253
     23 O           8.7022   -8.7620   27.1141 O.2     1  UNL1       -0.2704
     24 H           5.3955   -8.4549   26.0556 H       1  UNL1        0.1453
     25 H           6.0662   -9.6392   27.0829 H       1  UNL1        0.1453
     26 N          -1.3994    2.4476   21.0114 N.am    1  UNL1       -0.1708
     27 C          -0.2818    2.2080   20.0402 C.2     1  UNL1        0.3078
     28 O          -0.3710    2.7520   18.6451 O.2     1  UNL1       -0.2516
     29 H          -1.3409    2.0906   21.9270 H       1  UNL1        0.2545
     30 N          -2.4384    4.5325   19.8609 N.pl3   1  UNL1       -0.1313
     31 C          -2.6063    3.2312   20.5877 C.2     1  UNL1        0.3751
     32 N          -3.9811    2.7133   20.8908 N.pl3   1  UNL1       -0.2906
     33 H          -3.2305    5.0468   19.5828 H       1  UNL1        0.3060
     34 H          -4.7732    3.2275   20.6127 H       1  UNL1        0.2545
     35 H          -4.0913    1.8591   21.3678 H       1  UNL1        0.2545
     36 C           3.3811   -1.3276   18.9997 C.3     1  UNL1        0.4183
     37 F           4.0057   -2.3118   18.0556 F       1  UNL1       -0.1659
     38 F           2.6406   -2.4442   19.6739 F       1  UNL1       -0.1659
     39 F           4.1216   -0.2109   18.3254 F       1  UNL1       -0.1659
@<TRIPOS>BOND
     1    30    31    2
     2    31    32    1
     3    31    26    1
     4    26    27   am
     5    27    28    2
     6    27     1    1
     7     1     2   ar
     8     2     3   ar
     9     3     4   ar
    10     4     7    1
    11     7     8    1
    12     8     9    1
    13     9    10    1
    14    10    11   am
    15    11    12    2
    16    11    15    1
    17    15    16   ar
    18    16    17   ar
    19    17    18   ar
    20    18    21    1
    21    21    22   am
    22    21    23    2
    23    18    19   ar
    24    19    20   ar
    25    10    13    1
    26    13    14    1
    27     4     5   ar
    28     5    36    1
    29    36    37    1
    30    36    38    1
    31    36    39    1
    32     5     6   ar
    33     6     1   ar
    34    14     7    1
    35    20    15   ar
    36    30    33    1
    37    32    34    1
    38    32    35    1
    39    26    29    1
    40    22    24    1
    41    22    25    1
@<TRIPOS>MOLECULE
*****
 39 41 0 0 0
SMALL
GASTEIGER

@<TRIPOS>ATOM
      1 C           4.5578   -2.2971   23.0000 C.ar    1  UNL1        0.0696
      2 C           3.9897   -1.3237   23.9898 C.ar    1  UNL1        0.0057
      3 C           3.1475   -0.1768   23.5151 C.ar    1  UNL1       -0.0041
      4 C           2.8734   -0.0033   22.0507 C.ar    1  UNL1       -0.0185
      5 C           3.4415   -0.9766   21.0608 C.ar    1  UNL1        0.0677
      6 C           4.2837   -2.1235   21.5355 C.ar    1  UNL1        0.0095
      7 C           2.0312    1.1436   21.5760 C.3     1  UNL1        0.0257
      8 C           0.5424    0.9902   21.4768 C.3     1  UNL1        0.0259
      9 C          -0.2999    2.1371   21.0021 C.3     1  UNL1        0.0940
     10 N           0.3467    3.4374   20.6267 N.am    1  UNL1       -0.2761
     11 C          -0.4955    4.5843   20.1521 C.2     1  UNL1        0.2490
     12 O           0.1511    5.8847   19.7767 O.2     1  UNL1       -0.2699
     13 C           1.8355    3.5909   20.7260 C.3     1  UNL1        0.0940
     14 C           2.6777    2.4440   21.2006 C.3     1  UNL1        0.0259
     15 C          -1.9843    4.4309   20.0528 C.ar    1  UNL1        0.0536
     16 C          -2.8429    4.6460   21.2639 C.ar    1  UNL1        0.0047
     17 C          -4.3317    4.4925   21.1647 C.ar    1  UNL1        0.0046
     18 C          -4.9620    4.1240   19.8544 C.ar    1  UNL1        0.0531
     19 C          -4.1035    3.9088   18.6434 C.ar    1  UNL1        0.0046
     20 C          -2.6146    4.0623   18.7425 C.ar    1  UNL1        0.0047
     21 C          -6.4509    3.9705   19.7552 C.2     1  UNL1        0.2427
     22 N          -7.3384    4.5722   20.8041 N.am    1  UNL1       -0.3253
     23 O          -7.0521    3.2154   18.6071 O.2     1  UNL1       -0.2704
     24 H          -6.9437    5.0678   21.5577 H       1  UNL1        0.1453
     25 H          -8.3155    4.4715   20.7390 H       1  UNL1        0.1453
     26 N           5.7867   -3.5425   24.9205 N.am    1  UNL1       -0.1708
     27 C           5.4000   -3.4440   23.4746 C.2     1  UNL1        0.3078
     28 O           5.8556   -4.4923   22.5033 O.2     1  UNL1       -0.2516
     29 H           5.4877   -2.8544   25.5580 H       1  UNL1        0.2545
     30 N           7.7064   -5.2447   24.5116 N.pl3   1  UNL1       -0.1313
     31 C           6.6290   -4.6894   25.3952 C.2     1  UNL1        0.3751
     32 N           6.3937   -5.2810   26.7534 N.pl3   1  UNL1       -0.2906
     33 H           8.2592   -5.9975   24.8232 H       1  UNL1        0.3060
     34 H           6.9464   -6.0337   27.0650 H       1  UNL1        0.2545
     35 H           5.6865   -4.9165   27.3333 H       1  UNL1        0.2545
     36 C           3.1674   -0.8031   19.5963 C.3     1  UNL1        0.4183
     37 F           2.8932   -0.6297   18.1318 F       1  UNL1       -0.1659
     38 F           4.4164    0.0160   19.4595 F       1  UNL1       -0.1659
     39 F           1.9183   -1.6223   19.7331 F       1  UNL1       -0.1659
@<TRIPOS>BOND
     1    30    31    2
     2    31    32    1
     3    31    26    1
     4    26    27   am
     5    27    28    2
     6    27     1    1
     7     1     2   ar
     8     2     3   ar
     9     3     4   ar
    10     4     7    1
    11     7     8    1
    12     8     9    1
    13     9    10    1
    14    10    11   am
    15    11    12    2
    16    11    15    1
    17    15    16   ar
    18    16    17   ar
    19    17    18   ar
    20    18    21    1
    21    21    22   am
    22    21    23    2
    23    18    19   ar
    24    19    20   ar
    25    10    13    1
    26    13    14    1
    27     4     5   ar
    28     5    36    1
    29    36    37    1
    30    36    38    1
    31    36    39    1
    32     5     6   ar
    33     6     1   ar
    34    14     7    1
    35    20    15   ar
    36    30    33    1
    37    32    34    1
    38    32    35    1
    39    26    29    1
    40    22    24    1
    41    22    25    1
@<TRIPOS>MOLECULE
*****
 39 41 0 0 0
SMALL
GASTEIGER

@<TRIPOS>ATOM
      1 C         -11.8665   -4.3026   19.0460 C.ar    1  UNL1        0.0696
      2 C         -11.6278   -2.8428   18.7972 C.ar    1  UNL1        0.0057
      3 C         -12.7779   -1.8801   18.8201 C.ar    1  UNL1       -0.0041
      4 C         -14.1667   -2.3772   19.0917 C.ar    1  UNL1       -0.0185
      5 C         -14.4055   -3.8370   19.3405 C.ar    1  UNL1        0.0677
      6 C         -13.2554   -4.7997   19.3177 C.ar    1  UNL1        0.0095
      7 C         -15.3169   -1.4146   19.1146 C.3     1  UNL1        0.0257
      8 C         -15.6922   -0.7247   20.3925 C.3     1  UNL1        0.0259
      9 C         -16.8423    0.2380   20.4153 C.3     1  UNL1        0.0940
     10 N         -17.6171    0.5108   19.1603 N.am    1  UNL1       -0.2761
     11 C         -18.7672    1.4735   19.1831 C.2     1  UNL1        0.2490
     12 O         -19.5419    1.7463   17.9280 O.2     1  UNL1       -0.2699
     13 C         -17.2417   -0.1791   17.8823 C.3     1  UNL1        0.0940
     14 C         -16.0916   -1.1418   17.8595 C.3     1  UNL1        0.0259
     15 C         -19.1425    2.1633   20.4610 C.ar    1  UNL1        0.0536
     16 C         -20.0886    1.5033   21.4198 C.ar    1  UNL1        0.0047
     17 C         -20.4640    2.1931   22.6978 C.ar    1  UNL1        0.0046
     18 C         -19.8932    3.5431   23.0170 C.ar    1  UNL1        0.0531
     19 C         -18.9471    4.2031   22.0583 C.ar    1  UNL1        0.0046
     20 C         -18.5717    3.5133   20.7803 C.ar    1  UNL1        0.0047
     21 C         -20.2686    4.2329   24.2950 C.2     1  UNL1        0.2427
     22 N         -20.4622    5.7202   24.3156 N.am    1  UNL1       -0.3253
     23 O         -20.4504    3.4354   25.5524 O.2     1  UNL1       -0.2704
     24 H         -20.3429    6.2436   23.4903 H       1  UNL1        0.1453
     25 H         -20.7086    6.1730   25.1544 H       1  UNL1        0.1453
     26 N         -10.9628   -6.7221   18.7645 N.am    1  UNL1       -0.1708
     27 C         -10.7164   -5.2653   19.0232 C.2     1  UNL1        0.3078
     28 O          -9.3200   -4.7711   19.2589 O.2     1  UNL1       -0.2516
     29 H         -11.8794   -7.0464   18.6098 H       1  UNL1        0.2545
     30 N          -9.7793   -8.7894   17.7276 N.pl3   1  UNL1       -0.1313
     31 C          -9.8127   -7.6848   18.7417 C.2     1  UNL1        0.3751
     32 N          -8.6959   -7.5427   19.7331 N.pl3   1  UNL1       -0.2906
     33 H          -9.0245   -9.4213   17.7126 H       1  UNL1        0.3060
     34 H          -7.9411   -8.1745   19.7181 H       1  UNL1        0.2545
     35 H          -8.7179   -6.8177   20.3987 H       1  UNL1        0.2545
     36 C         -15.7945   -4.3342   19.6122 C.3     1  UNL1        0.4183
     37 F         -17.1833   -4.8314   19.8837 F       1  UNL1       -0.1659
     38 F         -15.5666   -4.1660   21.0851 F       1  UNL1       -0.1659
     39 F         -16.0223   -4.5024   18.1392 F       1  UNL1       -0.1659
@<TRIPOS>BOND
     1    30    31    2
     2    31    32    1
     3    31    26    1
     4    26    27   am
     5    27    28    2
     6    27     1    1
     7     1     2   ar
     8     2     3   ar
     9     3     4   ar
    10     4     7    1
    11     7     8    1
    12     8     9    1
    13     9    10    1
    14    10    11   am
    15    11    12    2
    16    11    15    1
    17    15    16   ar
    18    16    17   ar
    19    17    18   ar
    20    18    21    1
    21    21    22   am
    22    21    23    2
    23    18    19   ar
    24    19    20   ar
    25    10    13    1
    26    13    14    1
    27     4     5   ar
    28     5    36    1
    29    36    37    1
    30    36    38    1
    31    36    39    1
    32     5     6   ar
    33     6     1   ar
    34    14     7    1
    35    20    15   ar
    36    30    33    1
    37    32    34    1
    38    32    35    1
    39    26    29    1
    40    22    24    1
    41    22    25    1
@<TRIPOS>MOLECULE
*****
 39 41 0 0 0
SMALL
GASTEIGER

@<TRIPOS>ATOM
      1 C          -1.6540    3.5392   26.6921 C.ar    1  UNL1        0.0696
      2 C          -0.5643    4.3915   27.2719 C.ar    1  UNL1        0.0057
      3 C           0.3347    3.8373   28.3371 C.ar    1  UNL1       -0.0041
      4 C           0.1442    2.4309   28.8224 C.ar    1  UNL1       -0.0185
      5 C          -0.9454    1.5786   28.2425 C.ar    1  UNL1        0.0677
      6 C          -1.8445    2.1328   27.1774 C.ar    1  UNL1        0.0095
      7 C           1.0432    1.8767   29.8876 C.3     1  UNL1        0.0257
      8 C           1.9373    0.7115   29.5829 C.3     1  UNL1        0.0259
      9 C           2.8364    0.1573   30.6480 C.3     1  UNL1        0.0940
     10 N           2.8414    0.7684   32.0179 N.am    1  UNL1       -0.2761
     11 C           3.7405    0.2142   33.0830 C.2     1  UNL1        0.2490
     12 O           3.7455    0.8253   34.4529 O.2     1  UNL1       -0.2699
     13 C           1.9473    1.9336   32.3226 C.3     1  UNL1        0.0940
     14 C           1.0483    2.4878   31.2574 C.3     1  UNL1        0.0259
     15 C           4.6345   -0.9510   32.7784 C.ar    1  UNL1        0.0536
     16 C           5.9227   -0.7352   32.0407 C.ar    1  UNL1        0.0047
     17 C           6.8168   -1.9004   31.7360 C.ar    1  UNL1        0.0046
     18 C           6.4227   -3.2814   32.1689 C.ar    1  UNL1        0.0531
     19 C           5.1347   -3.4973   32.9066 C.ar    1  UNL1        0.0046
     20 C           4.2405   -2.3320   33.2113 C.ar    1  UNL1        0.0047
     21 C           7.3169   -4.4467   31.8642 C.2     1  UNL1        0.2427
     22 N           6.8497   -5.8441   32.1449 N.am    1  UNL1       -0.3253
     23 O           8.6783   -4.2144   31.2788 O.2     1  UNL1       -0.2704
     24 H           5.9561   -5.9965   32.5291 H       1  UNL1        0.1453
     25 H           7.4365   -6.6089   31.9449 H       1  UNL1        0.1453
     26 N          -4.0391    3.9206   25.7351 N.am    1  UNL1       -0.1708
     27 C          -2.5530    4.0934   25.6269 C.2     1  UNL1        0.3078
     28 O          -1.9661    4.8204   24.4535 O.2     1  UNL1       -0.2516
     29 H          -4.4244    3.4434   26.5053 H       1  UNL1        0.2545
     30 N          -5.9400    3.5846   23.9964 N.pl3   1  UNL1       -0.1313
     31 C          -4.9382    4.4747   24.6700 C.2     1  UNL1        0.3751
     32 N          -4.8353    5.9191   24.2785 N.pl3   1  UNL1       -0.2906
     33 H          -6.5301    3.9483   23.2973 H       1  UNL1        0.3060
     34 H          -5.4254    6.2829   23.5794 H       1  UNL1        0.2545
     35 H          -4.1777    6.5034   24.7206 H       1  UNL1        0.2545
     36 C          -1.1360    0.1721   28.7278 C.3     1  UNL1        0.4183
     37 F          -1.3267   -1.2344   29.2131 F       1  UNL1       -0.1659
     38 F          -0.3087   -0.3348   27.5839 F       1  UNL1       -0.1659
     39 F          -1.9634    0.6789   29.8717 F       1  UNL1       -0.1659
@<TRIPOS>BOND
     1    30    31    2
     2    31    32    1
     3    31    26    1
     4    26    27   am
     5    27    28    2
     6    27     1    1
     7     1     2   ar
     8     2     3   ar
     9     3     4   ar
    10     4     7    1
    11     7     8    1
    12     8     9    1
    13     9    10    1
    14    10    11   am
    15    11    12    2
    16    11    15    1
    17    15    16   ar
    18    16    17   ar
    19    17    18   ar
    20    18    21    1
    21    21    22   am
    22    21    23    2
    23    18    19   ar
    24    19    20   ar
    25    10    13    1
    26    13    14    1
    27     4     5   ar
    28     5    36    1
    29    36    37    1
    30    36    38    1
    31    36    39    1
    32     5     6   ar
    33     6     1   ar
    34    14     7    1
    35    20    15   ar
    36    30    33    1
    37    32    34    1
    38    32    35    1
    39    26    29    1
    40    22    24    1
    41    22    25    1
@<TRIPOS>MOLECULE
*****
 39 41 0 0 0
SMALL
GASTEIGER

@<TRIPOS>ATOM
      1 C           3.3390   -0.4335   28.0227 C.ar    1  UNL1        0.0696
      2 C           3.5788    0.5546   26.9199 C.ar    1  UNL1        0.0057
      3 C           2.4822    1.4860   26.4958 C.ar    1  UNL1       -0.0041
      4 C           1.1458    1.4294   27.1745 C.ar    1  UNL1       -0.0185
      5 C           0.9059    0.4413   28.2773 C.ar    1  UNL1        0.0677
      6 C           2.0026   -0.4901   28.7014 C.ar    1  UNL1        0.0095
      7 C           0.0491    2.3608   26.7503 C.3     1  UNL1        0.0257
      8 C          -0.6979    2.1081   25.4744 C.3     1  UNL1        0.0259
      9 C          -1.7945    3.0395   25.0503 C.3     1  UNL1        0.0940
     10 N          -2.1441    4.2236   25.9021 N.am    1  UNL1       -0.2761
     11 C          -3.2407    5.1550   25.4780 C.2     1  UNL1        0.2490
     12 O          -3.5903    6.3391   26.3298 O.2     1  UNL1       -0.2699
     13 C          -1.3971    4.4763   27.1780 C.3     1  UNL1        0.0940
     14 C          -0.3004    3.5449   27.6021 C.3     1  UNL1        0.0259
     15 C          -3.9878    4.9023   24.2021 C.ar    1  UNL1        0.0536
     16 C          -5.2257    4.0551   24.2129 C.ar    1  UNL1        0.0047
     17 C          -5.9727    3.8024   22.9370 C.ar    1  UNL1        0.0046
     18 C          -5.4820    4.3968   21.6502 C.ar    1  UNL1        0.0531
     19 C          -4.2442    5.2439   21.6393 C.ar    1  UNL1        0.0046
     20 C          -3.4970    5.4967   22.9153 C.ar    1  UNL1        0.0047
     21 C          -6.2291    4.1441   20.3742 C.2     1  UNL1        0.2427
     22 N          -7.4903    4.9013   20.0810 N.am    1  UNL1       -0.3253
     23 O          -5.7150    3.1341   19.3916 O.2     1  UNL1       -0.2704
     24 H          -7.8277    5.5641   20.7260 H       1  UNL1        0.1453
     25 H          -7.9806    4.7354   19.2436 H       1  UNL1        0.1453
     26 N           4.9551   -2.3967   27.4901 N.am    1  UNL1       -0.1708
     27 C           4.4357   -1.3649   28.4468 C.2     1  UNL1        0.3078
     28 O           5.0128   -1.2644   29.8277 O.2     1  UNL1       -0.2516
     29 H           4.5764   -2.4627   26.5838 H       1  UNL1        0.2545
     30 N           5.9010   -4.8065   27.7102 N.pl3   1  UNL1       -0.1313
     31 C           6.0518   -3.3281   27.9142 C.2     1  UNL1        0.3751
     32 N           7.2993   -2.7811   28.5425 N.pl3   1  UNL1       -0.2906
     33 H           6.6207   -5.4178   27.9885 H       1  UNL1        0.3060
     34 H           8.0190   -3.3924   28.8208 H       1  UNL1        0.2545
     35 H           7.3983   -1.8108   28.6764 H       1  UNL1        0.2545
     36 C          -0.4306    0.3846   28.9560 C.3     1  UNL1        0.4183
     37 F          -1.7670    0.3279   29.6347 F       1  UNL1       -0.1659
     38 F           0.0636    1.3325   30.0083 F       1  UNL1       -0.1659
     39 F          -0.9247   -0.5632   27.9037 F       1  UNL1       -0.1659
@<TRIPOS>BOND
     1    30    31    2
     2    31    32    1
     3    31    26    1
     4    26    27   am
     5    27    28    2
     6    27     1    1
     7     1     2   ar
     8     2     3   ar
     9     3     4   ar
    10     4     7    1
    11     7     8    1
    12     8     9    1
    13     9    10    1
    14    10    11   am
    15    11    12    2
    16    11    15    1
    17    15    16   ar
    18    16    17   ar
    19    17    18   ar
    20    18    21    1
    21    21    22   am
    22    21    23    2
    23    18    19   ar
    24    19    20   ar
    25    10    13    1
    26    13    14    1
    27     4     5   ar
    28     5    36    1
    29    36    37    1
    30    36    38    1
    31    36    39    1
    32     5     6   ar
    33     6     1   ar
    34    14     7    1
    35    20    15   ar
    36    30    33    1
    37    32    34    1
    38    32    35    1
    39    26    29    1
    40    22    24    1
    41    22    25    1
@<TRIPOS>MOLECULE
*****
 39 41 0 0 0
SMALL
GASTEIGER

@<TRIPOS>ATOM
      1 C           3.0738   -0.0940   29.3912 C.ar    1  UNL1        0.0696
      2 C           3.5685    0.9352   28.4186 C.ar    1  UNL1        0.0057
      3 C           2.5904    1.7957   27.6751 C.ar    1  UNL1       -0.0041
      4 C           1.1176    1.6271   27.9041 C.ar    1  UNL1       -0.0185
      5 C           0.6230    0.5979   28.8767 C.ar    1  UNL1        0.0677
      6 C           1.6010   -0.2627   29.6203 C.ar    1  UNL1        0.0095
      7 C           0.1396    2.4876   27.1606 C.3     1  UNL1        0.0257
      8 C          -0.2909    2.1082   25.7747 C.3     1  UNL1        0.0259
      9 C          -1.2690    2.9687   25.0312 C.3     1  UNL1        0.0940
     10 N          -1.8165    4.2087   25.6735 N.am    1  UNL1       -0.2761
     11 C          -2.7946    5.0693   24.9300 C.2     1  UNL1        0.2490
     12 O          -3.3421    6.3092   25.5723 O.2     1  UNL1       -0.2699
     13 C          -1.3860    4.5881   27.0594 C.3     1  UNL1        0.0940
     14 C          -0.4080    3.7276   27.8029 C.3     1  UNL1        0.0259
     15 C          -3.2251    4.6898   23.5441 C.ar    1  UNL1        0.0536
     16 C          -2.4991    5.2451   22.3547 C.ar    1  UNL1        0.0047
     17 C          -2.9296    4.8657   20.9689 C.ar    1  UNL1        0.0046
     18 C          -4.0862    3.9310   20.7723 C.ar    1  UNL1        0.0531
     19 C          -4.8122    3.3757   21.9616 C.ar    1  UNL1        0.0046
     20 C          -4.3817    3.7551   23.3476 C.ar    1  UNL1        0.0047
     21 C          -4.5167    3.5516   19.3864 C.2     1  UNL1        0.2427
     22 N          -5.8687    2.9422   19.1614 N.am    1  UNL1       -0.3253
     23 O          -3.5951    3.7815   18.2254 O.2     1  UNL1       -0.2704
     24 H          -6.4736    2.7913   19.9234 H       1  UNL1        0.1453
     25 H          -6.1513    2.6932   18.2518 H       1  UNL1        0.1453
     26 N           3.8459   -1.2353   31.5938 N.am    1  UNL1       -0.1708
     27 C           4.0518   -0.9546   30.1348 C.2     1  UNL1        0.3078
     28 O           5.2358   -1.5344   29.4193 O.2     1  UNL1       -0.2516
     29 H           3.0688   -0.8547   32.0634 H       1  UNL1        0.2545
     30 N           4.3281   -3.1662   33.2638 N.pl3   1  UNL1       -0.1313
     31 C           4.8240   -2.0958   32.3373 C.2     1  UNL1        0.3751
     32 N           6.2980   -1.8860   32.1543 N.pl3   1  UNL1       -0.2906
     33 H           4.9701   -3.7310   33.7518 H       1  UNL1        0.3060
     34 H           6.9399   -2.4508   32.6423 H       1  UNL1        0.2545
     35 H           6.6234   -1.1834   31.5463 H       1  UNL1        0.2545
     36 C          -0.8499    0.4292   29.1058 C.3     1  UNL1        0.4183
     37 F          -2.3226    0.2605   29.3350 F       1  UNL1       -0.1659
     38 F          -0.9286   -0.4900   27.9232 F       1  UNL1       -0.1659
     39 F          -0.7711    1.3484   30.2885 F       1  UNL1       -0.1659
@<TRIPOS>BOND
     1    30    31    2
     2    31    32    1
     3    31    26    1
     4    26    27   am
     5    27    28    2
     6    27     1    1
     7     1     2   ar
     8     2     3   ar
     9     3     4   ar
    10     4     7    1
    11     7     8    1
    12     8     9    1
    13     9    10    1
    14    10    11   am
    15    11    12    2
    16    11    15    1
    17    15    16   ar
    18    16    17   ar
    19    17    18   ar
    20    18    21    1
    21    21    22   am
    22    21    23    2
    23    18    19   ar
    24    19    20   ar
    25    10    13    1
    26    13    14    1
    27     4     5   ar
    28     5    36    1
    29    36    37    1
    30    36    38    1
    31    36    39    1
    32     5     6   ar
    33     6     1   ar
    34    14     7    1
    35    20    15   ar
    36    30    33    1
    37    32    34    1
    38    32    35    1
    39    26    29    1
    40    22    24    1
    41    22    25    1
@<TRIPOS>MOLECULE
*****
 39 41 0 0 0
SMALL
GASTEIGER

@<TRIPOS>ATOM
      1 C           0.9059    3.1306   30.9251 C.ar    1  UNL1        0.0696
      2 C           1.6278    3.9800   29.9214 C.ar    1  UNL1        0.0057
      3 C           1.6244    3.5944   28.4718 C.ar    1  UNL1       -0.0041
      4 C           0.8992    2.3595   28.0259 C.ar    1  UNL1       -0.0185
      5 C           0.1773    1.5101   29.0295 C.ar    1  UNL1        0.0677
      6 C           0.1807    1.8957   30.4791 C.ar    1  UNL1        0.0095
      7 C           0.8958    1.9740   26.5763 C.3     1  UNL1        0.0257
      8 C           1.8876    0.9718   26.0644 C.3     1  UNL1        0.0259
      9 C           1.8842    0.5862   24.6148 C.3     1  UNL1        0.0940
     10 N           0.8891    1.2029   23.6771 N.am    1  UNL1       -0.2761
     11 C           0.8857    0.8173   22.2275 C.2     1  UNL1        0.2490
     12 O          -0.1094    1.4339   21.2897 O.2     1  UNL1       -0.2699
     13 C          -0.1026    2.2050   24.1889 C.3     1  UNL1        0.0940
     14 C          -0.0993    2.5906   25.6385 C.3     1  UNL1        0.0259
     15 C           1.8775   -0.1849   21.7156 C.ar    1  UNL1        0.0536
     16 C           1.7747   -0.6896   20.3068 C.ar    1  UNL1        0.0047
     17 C           2.7665   -1.6918   19.7950 C.ar    1  UNL1        0.0046
     18 C           3.8610   -2.1893   20.6919 C.ar    1  UNL1        0.0531
     19 C           3.9638   -1.6847   22.1007 C.ar    1  UNL1        0.0046
     20 C           2.9720   -0.6824   22.6126 C.ar    1  UNL1        0.0047
     21 C           4.8528   -3.1916   20.1800 C.2     1  UNL1        0.2427
     22 N           5.2539   -3.1790   18.7347 N.am    1  UNL1       -0.3253
     23 O           5.4434   -4.2064   21.1135 O.2     1  UNL1       -0.2704
     24 H           4.8662   -2.5129   18.1221 H       1  UNL1        0.1453
     25 H           5.9048   -3.8368   18.3988 H       1  UNL1        0.1453
     26 N           2.0040    3.0299   33.2775 N.am    1  UNL1       -0.1708
     27 C           0.9093    3.5161   32.3747 C.2     1  UNL1        0.3078
     28 O          -0.1820    4.3879   32.9214 O.2     1  UNL1       -0.2516
     29 H           2.7202    2.4577   32.9187 H       1  UNL1        0.2545
     30 N           2.2799    2.3803   35.7779 N.pl3   1  UNL1       -0.1313
     31 C           2.0073    3.4155   34.7271 C.2     1  UNL1        0.3751
     32 N           1.7381    4.8362   35.1259 N.pl3   1  UNL1       -0.2906
     33 H           2.2821    2.6334   36.7293 H       1  UNL1        0.3060
     34 H           1.7403    5.0893   36.0774 H       1  UNL1        0.2545
     35 H           1.5592    5.5156   34.4363 H       1  UNL1        0.2545
     36 C          -0.5480    0.2751   28.5836 C.3     1  UNL1        0.4183
     37 F          -1.2732   -0.9599   28.1377 F       1  UNL1       -0.1659
     38 F          -1.7806    1.0910   28.3287 F       1  UNL1       -0.1659
     39 F           0.6846   -0.5408   28.8385 F       1  UNL1       -0.1659
@<TRIPOS>BOND
     1    30    31    2
     2    31    32    1
     3    31    26    1
     4    26    27   am
     5    27    28    2
     6    27     1    1
     7     1     2   ar
     8     2     3   ar
     9     3     4   ar
    10     4     7    1
    11     7     8    1
    12     8     9    1
    13     9    10    1
    14    10    11   am
    15    11    12    2
    16    11    15    1
    17    15    16   ar
    18    16    17   ar
    19    17    18   ar
    20    18    21    1
    21    21    22   am
    22    21    23    2
    23    18    19   ar
    24    19    20   ar
    25    10    13    1
    26    13    14    1
    27     4     5   ar
    28     5    36    1
    29    36    37    1
    30    36    38    1
    31    36    39    1
    32     5     6   ar
    33     6     1   ar
    34    14     7    1
    35    20    15   ar
    36    30    33    1
    37    32    34    1
    38    32    35    1
    39    26    29    1
    40    22    24    1
    41    22    25    1
