@<TRIPOS>MOLECULE
*****
 24 27 0 0 0
SMALL
GASTEIGER

@<TRIPOS>ATOM
      1 C          -2.6157  -18.1314   23.3982 C.3     1  UNL1        0.0342
      2 C          -3.6665  -18.6843   22.4817 C.2     1  UNL1        0.0113
      3 C          -5.1019  -18.2869   22.6603 C.2     1  UNL1       -0.0031
      4 C          -6.1528  -18.8398   21.7438 C.2     1  UNL1        0.0116
      5 C          -7.6368  -18.6316   21.6771 C.2     1  UNL1        0.0925
      6 C          -8.1695  -19.4531   20.5407 C.2     1  UNL1        0.1000
      7 N          -7.0147  -20.1690   19.9052 N.2     1  UNL1       -0.2616
      8 C          -5.7683  -19.7900   20.6487 C.3     1  UNL1        0.1507
      9 C          -4.3330  -20.1874   20.4701 C.2     1  UNL1        0.0384
     10 C          -3.2821  -19.6345   21.3866 C.2     1  UNL1        0.1276
     11 O          -1.8468  -20.0319   21.2080 O.2     1  UNL1       -0.5061
     12 H          -1.6066  -20.6254   20.5239 H       1  UNL1        0.2922
     13 C          -8.4460  -17.7556   22.5869 C.2     1  UNL1        0.3425
     14 O          -9.1066  -18.3412   23.7996 O.2     1  UNL1       -0.2448
     15 O          -8.5945  -16.2940   22.2841 O.3     1  UNL1       -0.4454
     16 C          -7.6485  -15.3019   22.8932 C.3     1  UNL1        0.2087
     17 C          -7.3115  -15.3851   24.3524 C.3     1  UNL1        0.0445
     18 C          -8.4069  -15.3725   25.3771 C.3     1  UNL1        0.0210
     19 C          -8.0697  -15.4557   26.8364 C.3     1  UNL1        0.0722
     20 N          -6.6373  -15.5515   27.2709 N.3     1  UNL1       -0.2727
     21 C          -5.5419  -15.5641   26.2462 C.3     1  UNL1        0.0722
     22 C          -5.8790  -15.4809   24.7870 C.3     1  UNL1        0.0210
     23 C          -6.7729  -15.5080   26.4600 C.3     1  UNL1        0.0722
     24 C          -7.0776  -15.4328   25.1405 C.3     1  UNL1        0.0210
@<TRIPOS>BOND
     1     1     2    1
     2     2     3    2
     3     3     4    1
     4     4     5    2
     5     5    13    1
     6    13    14    2
     7    13    15    1
     8    15    16    1
     9    16    17    1
    10    17    18    1
    11    18    19    1
    12    19    20    1
    13    20    21    1
    14    21    22    1
    15    20    23    1
    16    23    24    1
    17     5     6    1
    18     6     7    2
    19     7     8    1
    20     8     9    1
    21     9    10    2
    22    10    11    1
    23    10     2    1
    24     8     4    1
    25    22    17    1
    26    24    17    1
    27    11    12    1
@<TRIPOS>MOLECULE
*****
 24 27 0 0 0
SMALL
GASTEIGER

@<TRIPOS>ATOM
      1 C         -10.2395  -20.4899   25.0220 C.3     1  UNL1        0.0342
      2 C         -10.7572  -19.6769   23.8727 C.2     1  UNL1        0.0113
      3 C         -10.0697  -19.7381   22.5408 C.2     1  UNL1       -0.0031
      4 C         -10.5873  -18.9250   21.3915 C.2     1  UNL1        0.0116
      5 C         -10.1217  -18.7823   19.9728 C.2     1  UNL1        0.0925
      6 C         -11.0390  -17.8199   19.2784 C.2     1  UNL1        0.1000
      7 N         -12.0717  -17.3678   20.2680 N.2     1  UNL1       -0.2616
      8 C         -11.7925  -18.0508   21.5740 C.3     1  UNL1        0.1507
      9 C         -12.4800  -17.9896   22.9057 C.2     1  UNL1        0.0384
     10 C         -11.9624  -18.8027   24.0551 C.2     1  UNL1        0.1276
     11 O         -12.6499  -18.7415   25.3868 O.2     1  UNL1       -0.5061
     12 H         -13.4027  -18.1954   25.5008 H       1  UNL1        0.2922
     13 C          -8.9452  -19.4797   19.3567 C.2     1  UNL1        0.3425
     14 O          -9.1604  -20.5237   18.3014 O.2     1  UNL1       -0.2448
     15 O          -7.5535  -19.1330   19.7958 O.3     1  UNL1       -0.4454
     16 C          -6.7251  -20.1444   20.5313 C.3     1  UNL1        0.2087
     17 C          -5.3487  -19.7841   21.0063 C.3     1  UNL1        0.0445
     18 C          -5.1727  -19.0198   22.2849 C.3     1  UNL1        0.0210
     19 C          -3.7962  -18.6595   22.7598 C.3     1  UNL1        0.0722
     20 N          -2.5958  -19.0635   21.9561 N.3     1  UNL1       -0.2727
     21 C          -2.7719  -19.8278   20.6775 C.3     1  UNL1        0.0722
     22 C          -4.1483  -20.1881   20.2026 C.3     1  UNL1        0.0210
     23 C          -3.3301  -19.2835   21.6556 C.3     1  UNL1        0.0722
     24 C          -4.5746  -19.6094   21.2260 C.3     1  UNL1        0.0210
@<TRIPOS>BOND
     1     1     2    1
     2     2     3    2
     3     3     4    1
     4     4     5    2
     5     5    13    1
     6    13    14    2
     7    13    15    1
     8    15    16    1
     9    16    17    1
    10    17    18    1
    11    18    19    1
    12    19    20    1
    13    20    21    1
    14    21    22    1
    15    20    23    1
    16    23    24    1
    17     5     6    1
    18     6     7    2
    19     7     8    1
    20     8     9    1
    21     9    10    2
    22    10    11    1
    23    10     2    1
    24     8     4    1
    25    22    17    1
    26    24    17    1
    27    11    12    1
@<TRIPOS>MOLECULE
*****
 24 27 0 0 0
SMALL
GASTEIGER

@<TRIPOS>ATOM
      1 C         -12.9722  -15.8656   22.4785 C.3     1  UNL1        0.0342
      2 C         -12.1964  -17.0693   22.9247 C.2     1  UNL1        0.0113
      3 C         -10.7952  -17.2828   22.4337 C.2     1  UNL1       -0.0031
      4 C         -10.0194  -18.4865   22.8800 C.2     1  UNL1        0.0116
      5 C          -8.6307  -18.9587   22.5658 C.2     1  UNL1        0.0925
      6 C          -8.3978  -20.2407   23.3089 C.2     1  UNL1        0.1000
      7 N          -9.6425  -20.5609   24.0823 N.2     1  UNL1       -0.2616
      8 C         -10.6447  -19.4767   23.8173 C.3     1  UNL1        0.1507
      9 C         -12.0459  -19.2632   24.3083 C.2     1  UNL1        0.0384
     10 C         -12.8218  -18.0595   23.8620 C.2     1  UNL1        0.1276
     11 O         -14.2229  -17.8460   24.3530 O.2     1  UNL1       -0.5061
     12 H         -14.6136  -18.4645   24.9385 H       1  UNL1        0.2922
     13 C          -7.6476  -18.2698   21.6665 C.2     1  UNL1        0.3425
     14 O          -7.5153  -18.6953   20.2342 O.2     1  UNL1       -0.2448
     15 O          -6.7967  -17.1553   22.1994 O.3     1  UNL1       -0.4454
     16 C          -7.4361  -15.9901   22.8947 C.3     1  UNL1        0.2087
     17 C          -7.2707  -15.8174   24.3755 C.3     1  UNL1        0.0445
     18 C          -8.4254  -16.0832   25.2952 C.3     1  UNL1        0.0210
     19 C          -8.2599  -15.9105   26.7760 C.3     1  UNL1        0.0722
     20 N          -6.9397  -15.4721   27.3370 N.3     1  UNL1       -0.2727
     21 C          -5.7850  -15.2063   26.4173 C.3     1  UNL1        0.0722
     22 C          -5.9505  -15.3790   24.9365 C.3     1  UNL1        0.0210
     23 C          -6.9824  -15.5530   26.5188 C.3     1  UNL1        0.0722
     24 C          -7.1319  -15.7091   25.1798 C.3     1  UNL1        0.0210
@<TRIPOS>BOND
     1     1     2    1
     2     2     3    2
     3     3     4    1
     4     4     5    2
     5     5    13    1
     6    13    14    2
     7    13    15    1
     8    15    16    1
     9    16    17    1
    10    17    18    1
    11    18    19    1
    12    19    20    1
    13    20    21    1
    14    21    22    1
    15    20    23    1
    16    23    24    1
    17     5     6    1
    18     6     7    2
    19     7     8    1
    20     8     9    1
    21     9    10    2
    22    10    11    1
    23    10     2    1
    24     8     4    1
    25    22    17    1
    26    24    17    1
    27    11    12    1
@<TRIPOS>MOLECULE
*****
 24 27 0 0 0
SMALL
GASTEIGER

@<TRIPOS>ATOM
      1 C          -2.6756  -18.1951   22.9472 C.3     1  UNL1        0.0342
      2 C          -3.8236  -18.4755   22.0235 C.2     1  UNL1        0.0113
      3 C          -5.2231  -18.5281   22.5609 C.2     1  UNL1       -0.0031
      4 C          -6.3712  -18.8085   21.6372 C.2     1  UNL1        0.0116
      5 C          -7.8477  -18.9209   21.8766 C.2     1  UNL1        0.0925
      6 C          -8.5089  -19.2183   20.5634 C.2     1  UNL1        0.1000
      7 N          -7.4410  -19.2896   19.5125 N.2     1  UNL1       -0.2616
      8 C          -6.1199  -19.0363   20.1761 C.3     1  UNL1        0.1507
      9 C          -4.7205  -18.9838   19.6386 C.2     1  UNL1        0.0384
     10 C          -3.5723  -18.7033   20.5624 C.2     1  UNL1        0.1276
     11 O          -2.1729  -18.6508   20.0249 O.2     1  UNL1       -0.5061
     12 H          -2.0159  -18.7931   19.1122 H       1  UNL1        0.2922
     13 C          -8.5412  -18.7636   23.1973 C.2     1  UNL1        0.3425
     14 O          -9.3092  -19.9115   23.7825 O.2     1  UNL1       -0.2448
     15 O          -8.4668  -17.4584   23.9328 O.3     1  UNL1       -0.4454
     16 C          -9.4318  -16.3574   23.6064 C.3     1  UNL1        0.2087
     17 C         -10.5579  -16.6069   22.6474 C.3     1  UNL1        0.0445
     18 C         -11.7279  -17.4466   23.0667 C.3     1  UNL1        0.0210
     19 C         -12.8540  -17.6961   22.1077 C.3     1  UNL1        0.0722
     20 N         -12.8101  -17.1058   20.7295 N.3     1  UNL1       -0.2727
     21 C         -11.6400  -16.2660   20.3102 C.3     1  UNL1        0.0722
     22 C         -10.5139  -16.0166   21.2692 C.3     1  UNL1        0.0210
     23 C         -12.1696  -16.9414   21.2200 C.3     1  UNL1        0.0722
     24 C         -11.1513  -16.7158   22.0871 C.3     1  UNL1        0.0210
@<TRIPOS>BOND
     1     1     2    1
     2     2     3    2
     3     3     4    1
     4     4     5    2
     5     5    13    1
     6    13    14    2
     7    13    15    1
     8    15    16    1
     9    16    17    1
    10    17    18    1
    11    18    19    1
    12    19    20    1
    13    20    21    1
    14    21    22    1
    15    20    23    1
    16    23    24    1
    17     5     6    1
    18     6     7    2
    19     7     8    1
    20     8     9    1
    21     9    10    2
    22    10    11    1
    23    10     2    1
    24     8     4    1
    25    22    17    1
    26    24    17    1
    27    11    12    1
@<TRIPOS>MOLECULE
*****
 24 27 0 0 0
SMALL
GASTEIGER

@<TRIPOS>ATOM
      1 C          -6.6676  -16.5729   23.5257 C.3     1  UNL1        0.0342
      2 C          -7.2836  -17.4740   22.4969 C.2     1  UNL1        0.0113
      3 C          -8.6522  -17.1746   21.9606 C.2     1  UNL1       -0.0031
      4 C          -9.2682  -18.0756   20.9318 C.2     1  UNL1        0.0116
      5 C         -10.5905  -18.0350   20.2247 C.2     1  UNL1        0.0925
      6 C         -10.6553  -19.2104   19.2950 C.2     1  UNL1        0.1000
      7 N          -9.3731  -19.9775   19.4277 N.2     1  UNL1       -0.2616
      8 C          -8.5159  -19.2762   20.4392 C.3     1  UNL1        0.1507
      9 C          -7.1474  -19.5756   20.9755 C.2     1  UNL1        0.0384
     10 C          -6.5312  -18.6745   22.0043 C.2     1  UNL1        0.1276
     11 O          -5.1628  -18.9740   22.5405 O.2     1  UNL1       -0.5061
     12 H          -4.6928  -19.7239   22.2328 H       1  UNL1        0.2922
     13 C         -11.6601  -17.0006   20.4139 C.2     1  UNL1        0.3425
     14 O         -12.0182  -16.0772   19.2874 O.2     1  UNL1       -0.2448
     15 O         -12.3716  -16.8895   21.7297 O.3     1  UNL1       -0.4454
     16 C         -12.6766  -18.1248   22.5242 C.3     1  UNL1        0.2087
     17 C         -11.6112  -18.7523   23.3735 C.3     1  UNL1        0.0445
     18 C         -11.1225  -20.1359   23.0628 C.3     1  UNL1        0.0210
     19 C         -10.0571  -20.7634   23.9121 C.3     1  UNL1        0.0722
     20 N          -9.4806  -20.0071   25.0721 N.3     1  UNL1       -0.2727
     21 C          -9.9693  -18.6235   25.3828 C.3     1  UNL1        0.0722
     22 C         -11.0347  -17.9960   24.5335 C.3     1  UNL1        0.0210
     23 C         -10.0625  -19.6219   24.6353 C.3     1  UNL1        0.0722
     24 C         -11.0258  -19.0544   23.8674 C.3     1  UNL1        0.0210
@<TRIPOS>BOND
     1     1     2    1
     2     2     3    2
     3     3     4    1
     4     4     5    2
     5     5    13    1
     6    13    14    2
     7    13    15    1
     8    15    16    1
     9    16    17    1
    10    17    18    1
    11    18    19    1
    12    19    20    1
    13    20    21    1
    14    21    22    1
    15    20    23    1
    16    23    24    1
    17     5     6    1
    18     6     7    2
    19     7     8    1
    20     8     9    1
    21     9    10    2
    22    10    11    1
    23    10     2    1
    24     8     4    1
    25    22    17    1
    26    24    17    1
    27    11    12    1
@<TRIPOS>MOLECULE
*****
 24 27 0 0 0
SMALL
GASTEIGER

@<TRIPOS>ATOM
      1 C          -4.6264  -18.4360   22.8833 C.3     1  UNL1        0.0342
      2 C          -5.7712  -18.7965   21.9836 C.2     1  UNL1        0.0113
      3 C          -7.1319  -18.2158   22.2318 C.2     1  UNL1       -0.0031
      4 C          -8.2766  -18.5763   21.3321 C.2     1  UNL1        0.0116
      5 C          -9.7190  -18.1646   21.3291 C.2     1  UNL1        0.0925
      6 C         -10.3947  -18.8513   20.1793 C.2     1  UNL1        0.1000
      7 N          -9.3699  -19.6873   19.4717 N.2     1  UNL1       -0.2616
      8 C          -8.0608  -19.5174   20.1841 C.3     1  UNL1        0.1507
      9 C          -6.7003  -20.0980   19.9359 C.2     1  UNL1        0.0384
     10 C          -5.5554  -19.7376   20.8356 C.2     1  UNL1        0.1276
     11 O          -4.1948  -20.3182   20.5874 O.2     1  UNL1       -0.5061
     12 H          -4.0600  -20.9061   19.8703 H       1  UNL1        0.2922
     13 C         -10.3713  -17.2303   22.3046 C.2     1  UNL1        0.3425
     14 O         -11.5320  -16.3846   21.8718 O.2     1  UNL1       -0.2448
     15 O          -9.8627  -17.1417   23.7130 O.3     1  UNL1       -0.4454
     16 C          -9.4597  -15.8139   24.2828 C.3     1  UNL1        0.2087
     17 C          -8.1488  -15.6713   24.9977 C.3     1  UNL1        0.0445
     18 C          -6.8967  -15.3929   24.2200 C.3     1  UNL1        0.0210
     19 C          -5.5858  -15.2503   24.9350 C.3     1  UNL1        0.0722
     20 N          -5.5270  -15.3861   26.4277 N.3     1  UNL1       -0.2727
     21 C          -6.7791  -15.6645   27.2054 C.3     1  UNL1        0.0722
     22 C          -8.0900  -15.8071   26.4904 C.3     1  UNL1        0.0210
     23 C          -6.2683  -15.4723   26.0800 C.3     1  UNL1        0.0722
     24 C          -7.4537  -15.6012   25.4336 C.3     1  UNL1        0.0210
@<TRIPOS>BOND
     1     1     2    1
     2     2     3    2
     3     3     4    1
     4     4     5    2
     5     5    13    1
     6    13    14    2
     7    13    15    1
     8    15    16    1
     9    16    17    1
    10    17    18    1
    11    18    19    1
    12    19    20    1
    13    20    21    1
    14    21    22    1
    15    20    23    1
    16    23    24    1
    17     5     6    1
    18     6     7    2
    19     7     8    1
    20     8     9    1
    21     9    10    2
    22    10    11    1
    23    10     2    1
    24     8     4    1
    25    22    17    1
    26    24    17    1
    27    11    12    1
@<TRIPOS>MOLECULE
*****
 24 27 0 0 0
SMALL
GASTEIGER

@<TRIPOS>ATOM
      1 C         -13.0560  -16.5830   21.4501 C.3     1  UNL1        0.0342
      2 C         -12.0923  -17.5314   22.0995 C.2     1  UNL1        0.0113
      3 C         -10.7975  -17.8669   21.4204 C.2     1  UNL1       -0.0031
      4 C          -9.8338  -18.8154   22.0697 C.2     1  UNL1        0.0116
      5 C          -8.4915  -19.3310   21.6429 C.2     1  UNL1        0.0925
      6 C          -7.9928  -20.2626   22.7075 C.2     1  UNL1        0.1000
      7 N          -9.0269  -20.3227   23.7923 N.2     1  UNL1       -0.2616
      8 C         -10.1648  -19.4283   23.3982 C.3     1  UNL1        0.1507
      9 C         -11.4595  -19.0928   24.0773 C.2     1  UNL1        0.0384
     10 C         -12.4233  -18.1443   23.4279 C.2     1  UNL1        0.1276
     11 O         -13.7179  -17.8089   24.1070 O.2     1  UNL1       -0.5061
     12 H         -13.9247  -18.1918   24.9369 H       1  UNL1        0.2922
     13 C          -7.7738  -18.9771   20.3741 C.2     1  UNL1        0.3425
     14 O          -8.4537  -19.1650   19.0504 O.2     1  UNL1       -0.2448
     15 O          -6.3761  -18.4353   20.4291 O.3     1  UNL1       -0.4454
     16 C          -5.3157  -19.0033   19.5331 C.3     1  UNL1        0.2087
     17 C          -3.8722  -18.9187   19.9323 C.3     1  UNL1        0.0445
     18 C          -3.3918  -19.6273   21.1639 C.3     1  UNL1        0.0210
     19 C          -1.9484  -19.5426   21.5630 C.3     1  UNL1        0.0722
     20 N          -0.9854  -18.7493   20.7304 N.3     1  UNL1       -0.2727
     21 C          -1.4658  -18.0407   19.4987 C.3     1  UNL1        0.0722
     22 C          -2.9092  -18.1253   19.0996 C.3     1  UNL1        0.0210
     23 C          -1.7668  -18.7666   20.4717 C.3     1  UNL1        0.0722
     24 C          -3.0720  -18.8431   20.1108 C.3     1  UNL1        0.0210
@<TRIPOS>BOND
     1     1     2    1
     2     2     3    2
     3     3     4    1
     4     4     5    2
     5     5    13    1
     6    13    14    2
     7    13    15    1
     8    15    16    1
     9    16    17    1
    10    17    18    1
    11    18    19    1
    12    19    20    1
    13    20    21    1
    14    21    22    1
    15    20    23    1
    16    23    24    1
    17     5     6    1
    18     6     7    2
    19     7     8    1
    20     8     9    1
    21     9    10    2
    22    10    11    1
    23    10     2    1
    24     8     4    1
    25    22    17    1
    26    24    17    1
    27    11    12    1
@<TRIPOS>MOLECULE
*****
 24 27 0 0 0
SMALL
GASTEIGER

@<TRIPOS>ATOM
      1 C          -9.9490  -18.4401   25.2686 C.3     1  UNL1        0.0342
      2 C         -10.0504  -18.6954   23.7940 C.2     1  UNL1        0.0113
      3 C          -8.8073  -18.9132   22.9832 C.2     1  UNL1       -0.0031
      4 C          -8.9087  -19.1685   21.5086 C.2     1  UNL1        0.0116
      5 C          -7.8663  -19.4167   20.4589 C.2     1  UNL1        0.0925
      6 C          -8.5666  -19.6075   19.1462 C.2     1  UNL1        0.1000
      7 N         -10.0418  -19.4773   19.3846 N.2     1  UNL1       -0.2616
      8 C         -10.2532  -19.2059   20.8447 C.3     1  UNL1        0.1507
      9 C         -11.4963  -18.9881   21.6553 C.2     1  UNL1        0.0384
     10 C         -11.3949  -18.7328   23.1300 C.2     1  UNL1        0.1276
     11 O         -12.6380  -18.5150   23.9407 O.2     1  UNL1       -0.5061
     12 H         -13.4779  -18.5384   23.5259 H       1  UNL1        0.2922
     13 C          -6.3839  -19.4655   20.6827 C.2     1  UNL1        0.3425
     14 O          -5.7389  -18.5127   21.6450 O.2     1  UNL1       -0.2448
     15 O          -5.5465  -20.4671   19.9441 O.3     1  UNL1       -0.4454
     16 C          -4.1065  -20.6611   20.3165 C.3     1  UNL1        0.2087
     17 C          -3.1413  -19.5188   20.2004 C.3     1  UNL1        0.0445
     18 C          -3.0083  -18.7782   18.9028 C.3     1  UNL1        0.0210
     19 C          -2.0431  -17.6359   18.7867 C.3     1  UNL1        0.0722
     20 N          -1.2108  -17.2343   19.9682 N.3     1  UNL1       -0.2727
     21 C          -1.3437  -17.9749   21.2658 C.3     1  UNL1        0.0722
     22 C          -2.3090  -19.1172   21.3819 C.3     1  UNL1        0.0210
     23 C          -1.7261  -17.8667   20.0799 C.3     1  UNL1        0.0722
     24 C          -2.5988  -18.8996   20.1850 C.3     1  UNL1        0.0210
@<TRIPOS>BOND
     1     1     2    1
     2     2     3    2
     3     3     4    1
     4     4     5    2
     5     5    13    1
     6    13    14    2
     7    13    15    1
     8    15    16    1
     9    16    17    1
    10    17    18    1
    11    18    19    1
    12    19    20    1
    13    20    21    1
    14    21    22    1
    15    20    23    1
    16    23    24    1
    17     5     6    1
    18     6     7    2
    19     7     8    1
    20     8     9    1
    21     9    10    2
    22    10    11    1
    23    10     2    1
    24     8     4    1
    25    22    17    1
    26    24    17    1
    27    11    12    1
@<TRIPOS>MOLECULE
*****
 24 27 0 0 0
SMALL
GASTEIGER

@<TRIPOS>ATOM
      1 C         -11.1881  -16.1035   19.6522 C.3     1  UNL1        0.0342
      2 C         -11.0582  -17.1554   20.7136 C.2     1  UNL1        0.0113
      3 C          -9.7137  -17.7412   21.0285 C.2     1  UNL1       -0.0031
      4 C          -9.5838  -18.7931   22.0899 C.2     1  UNL1        0.0116
      5 C          -8.3989  -19.5483   22.6149 C.2     1  UNL1        0.0925
      6 C          -8.8812  -20.4813   23.6859 C.2     1  UNL1        0.1000
      7 N         -10.3642  -20.3027   23.8227 N.2     1  UNL1       -0.2616
      8 C         -10.7985  -19.2594   22.8363 C.3     1  UNL1        0.1507
      9 C         -12.1430  -18.6737   22.5214 C.2     1  UNL1        0.0384
     10 C         -12.2729  -17.6217   21.4600 C.2     1  UNL1        0.1276
     11 O         -13.6174  -17.0360   21.1452 O.2     1  UNL1       -0.5061
     12 H         -14.3762  -17.3273   21.6115 H       1  UNL1        0.2922
     13 C          -6.9806  -19.3970   22.1505 C.2     1  UNL1        0.3425
     14 O          -6.3454  -18.0388   22.1104 O.2     1  UNL1       -0.2448
     15 O          -6.1976  -20.6040   21.7262 O.3     1  UNL1       -0.4454
     16 C          -5.3269  -20.5425   20.5063 C.3     1  UNL1        0.2087
     17 C          -4.0814  -19.7066   20.5152 C.3     1  UNL1        0.0445
     18 C          -3.7690  -18.8137   19.3511 C.3     1  UNL1        0.0210
     19 C          -2.5235  -17.9779   19.3602 C.3     1  UNL1        0.0722
     20 N          -1.5904  -18.0350   20.5332 N.3     1  UNL1       -0.2727
     21 C          -1.9028  -18.9279   21.6973 C.3     1  UNL1        0.0722
     22 C          -3.1483  -19.7637   21.6883 C.3     1  UNL1        0.0210
     23 C          -2.2607  -18.5113   20.5736 C.3     1  UNL1        0.0722
     24 C          -3.3869  -19.2671   20.5656 C.3     1  UNL1        0.0210
@<TRIPOS>BOND
     1     1     2    1
     2     2     3    2
     3     3     4    1
     4     4     5    2
     5     5    13    1
     6    13    14    2
     7    13    15    1
     8    15    16    1
     9    16    17    1
    10    17    18    1
    11    18    19    1
    12    19    20    1
    13    20    21    1
    14    21    22    1
    15    20    23    1
    16    23    24    1
    17     5     6    1
    18     6     7    2
    19     7     8    1
    20     8     9    1
    21     9    10    2
    22    10    11    1
    23    10     2    1
    24     8     4    1
    25    22    17    1
    26    24    17    1
    27    11    12    1
