@<TRIPOS>MOLECULE
*****
 24 26 0 0 0
SMALL
GASTEIGER

@<TRIPOS>ATOM
      1 C          -8.6403  -16.8020   22.2914 C.3     1  UNL1        0.2136
      2 C         -10.1349  -16.9267   22.2715 C.ar    1  UNL1        0.0157
      3 C         -11.2230  -16.0431   22.8056 C.ar    1  UNL1       -0.0011
      4 C         -12.6604  -16.4357   22.6329 C.ar    1  UNL1       -0.0002
      5 C         -13.0097  -17.7118   21.9262 C.ar    1  UNL1       -0.0003
      6 C         -11.9216  -18.5954   21.3921 C.ar    1  UNL1       -0.0044
      7 C         -10.4842  -18.2028   21.5648 C.ar    1  UNL1       -0.0202
      8 C          -9.2054  -18.8668   21.1479 C.3     1  UNL1        0.0584
      9 C          -8.0657  -18.0010   21.5970 C.3     1  UNL1        0.1471
     10 O          -6.7485  -17.3578   21.9149 O.3     1  UNL1       -0.3812
     11 H          -6.0279  -17.9130   21.5780 H       1  UNL1        0.2105
     12 O          -7.8575  -15.6759   22.8991 O.3     1  UNL1       -0.4726
     13 C          -6.1681  -15.5333   24.8678 C.ar    1  UNL1        0.0118
     14 C          -5.8884  -15.5240   26.3415 C.ar    1  UNL1       -0.0013
     15 C          -7.0184  -15.6478   27.3201 C.ar    1  UNL1       -0.0001
     16 C          -8.4281  -15.7810   26.8252 C.ar    1  UNL1        0.0031
     17 C          -8.7078  -15.7904   25.3515 C.ar    1  UNL1        0.0366
     18 C          -7.5778  -15.6665   24.3729 C.ar    1  UNL1        0.1349
     19 C          -4.1581  -16.5908   23.6062 C.3     1  UNL1        0.0051
     20 C          -5.0381  -15.4095   23.8891 C.3     1  UNL1        0.0294
     21 C          -7.2159  -19.0656   20.9691 C.3     1  UNL1        0.1001
     22 N          -6.2100  -18.6995   19.9183 N.3     1  UNL1       -0.2942
     23 C          -4.8520  -19.3366   19.9256 C.3     1  UNL1        0.0859
     24 H          -6.0632  -17.6927   19.9892 H       1  UNL1        0.1234
@<TRIPOS>BOND
     1    19    20    1
     2    20    13    1
     3    13    14   ar
     4    14    15   ar
     5    15    16   ar
     6    16    17   ar
     7    17    18   ar
     8    18    12    1
     9     1    12    1
    10     1     2    1
    11     2     3   ar
    12     3     4   ar
    13     4     5   ar
    14     5     6   ar
    15     6     7   ar
    16     7     8    1
    17     8     9    1
    18     9    10    1
    19     9    21    1
    20    21    22    1
    21    22    23    1
    22    18    13   ar
    23     9     1    1
    24     7     2   ar
    25    10    11    1
    26    22    24    1
@<TRIPOS>MOLECULE
*****
 24 26 0 0 0
SMALL
GASTEIGER

@<TRIPOS>ATOM
      1 C          -7.5178  -16.6342   22.8477 C.3     1  UNL1        0.2136
      2 C          -6.9418  -17.8892   22.2620 C.ar    1  UNL1        0.0157
      3 C          -7.5287  -18.9408   21.3678 C.ar    1  UNL1       -0.0011
      4 C          -6.6933  -20.1091   20.9354 C.ar    1  UNL1       -0.0002
      5 C          -5.2710  -20.2259   21.3972 C.ar    1  UNL1       -0.0003
      6 C          -4.6840  -19.1743   22.2914 C.ar    1  UNL1       -0.0044
      7 C          -5.5195  -18.0060   22.7238 C.ar    1  UNL1       -0.0202
      8 C          -5.2164  -16.8231   23.5950 C.3     1  UNL1        0.0584
      9 C          -6.4514  -15.9752   23.6715 C.3     1  UNL1        0.1471
     10 O          -7.5098  -14.9446   23.9317 O.3     1  UNL1       -0.3812
     11 H          -7.1520  -14.2525   24.5095 H       1  UNL1        0.2105
     12 O          -8.9149  -16.1270   22.6451 O.3     1  UNL1       -0.4726
     13 C         -11.4050  -16.8317   22.4146 C.ar    1  UNL1        0.0118
     14 C         -12.5737  -17.6452   22.8858 C.ar    1  UNL1       -0.0013
     15 C         -12.4214  -18.5676   24.0588 C.ar    1  UNL1       -0.0001
     16 C         -11.1002  -18.6765   24.7606 C.ar    1  UNL1        0.0031
     17 C          -9.9314  -17.8630   24.2894 C.ar    1  UNL1        0.0366
     18 C         -10.0838  -16.9406   23.1164 C.ar    1  UNL1        0.1349
     19 C         -11.4041  -16.4385   19.8464 C.3     1  UNL1        0.0051
     20 C         -11.5573  -15.9093   21.2415 C.3     1  UNL1        0.0294
     21 C          -5.6063  -15.1009   24.5498 C.3     1  UNL1        0.1001
     22 N          -6.1659  -14.5623   25.8330 N.3     1  UNL1       -0.2942
     23 C          -6.3709  -15.4769   27.0041 C.3     1  UNL1        0.0859
     24 H          -7.0763  -14.1594   25.6112 H       1  UNL1        0.1234
@<TRIPOS>BOND
     1    19    20    1
     2    20    13    1
     3    13    14   ar
     4    14    15   ar
     5    15    16   ar
     6    16    17   ar
     7    17    18   ar
     8    18    12    1
     9     1    12    1
    10     1     2    1
    11     2     3   ar
    12     3     4   ar
    13     4     5   ar
    14     5     6   ar
    15     6     7   ar
    16     7     8    1
    17     8     9    1
    18     9    10    1
    19     9    21    1
    20    21    22    1
    21    22    23    1
    22    18    13   ar
    23     9     1    1
    24     7     2   ar
    25    10    11    1
    26    22    24    1
@<TRIPOS>MOLECULE
*****
 24 26 0 0 0
SMALL
GASTEIGER

@<TRIPOS>ATOM
      1 C          -7.6283  -18.2830   21.9106 C.3     1  UNL1        0.2136
      2 C          -7.3799  -17.1333   22.8414 C.ar    1  UNL1        0.0157
      3 C          -8.2805  -16.0556   23.3681 C.ar    1  UNL1       -0.0011
      4 C          -7.7389  -15.0173   24.3054 C.ar    1  UNL1       -0.0002
      5 C          -6.2968  -15.0567   24.7161 C.ar    1  UNL1       -0.0003
      6 C          -5.3962  -16.1344   24.1894 C.ar    1  UNL1       -0.0044
      7 C          -5.9377  -17.1727   23.2520 C.ar    1  UNL1       -0.0202
      8 C          -5.2949  -18.3467   22.5750 C.3     1  UNL1        0.0584
      9 C          -6.3397  -19.0330   21.7459 C.3     1  UNL1        0.1471
     10 O          -7.1507  -19.9145   20.8430 O.3     1  UNL1       -0.3812
     11 H          -6.5875  -20.6207   20.4895 H       1  UNL1        0.2105
     12 O          -8.9358  -18.6230   21.2588 O.3     1  UNL1       -0.4726
     13 C         -11.3853  -17.7631   21.3646 C.ar    1  UNL1        0.0118
     14 C         -12.6685  -17.5867   22.1210 C.ar    1  UNL1       -0.0013
     15 C         -12.7857  -18.0936   23.5279 C.ar    1  UNL1       -0.0001
     16 C         -11.6196  -18.7770   24.1784 C.ar    1  UNL1        0.0031
     17 C         -10.3364  -18.9535   23.4220 C.ar    1  UNL1        0.0366
     18 C         -10.2192  -18.4465   22.0152 C.ar    1  UNL1        0.1349
     19 C         -11.7614  -15.8824   19.6120 C.3     1  UNL1        0.0051
     20 C         -11.2681  -17.2561   19.9578 C.3     1  UNL1        0.0294
     21 C          -5.2207  -19.9672   21.3925 C.3     1  UNL1        0.1001
     22 N          -3.8847  -19.4181   20.9879 N.3     1  UNL1       -0.2942
     23 C          -3.5476  -19.2603   19.5348 C.3     1  UNL1        0.0859
     24 H          -3.1789  -20.0358   21.3885 H       1  UNL1        0.1234
@<TRIPOS>BOND
     1    19    20    1
     2    20    13    1
     3    13    14   ar
     4    14    15   ar
     5    15    16   ar
     6    16    17   ar
     7    17    18   ar
     8    18    12    1
     9     1    12    1
    10     1     2    1
    11     2     3   ar
    12     3     4   ar
    13     4     5   ar
    14     5     6   ar
    15     6     7   ar
    16     7     8    1
    17     8     9    1
    18     9    10    1
    19     9    21    1
    20    21    22    1
    21    22    23    1
    22    18    13   ar
    23     9     1    1
    24     7     2   ar
    25    10    11    1
    26    22    24    1
@<TRIPOS>MOLECULE
*****
 24 26 0 0 0
SMALL
GASTEIGER

@<TRIPOS>ATOM
      1 C          -8.0207  -17.6927   21.6844 C.3     1  UNL1        0.2136
      2 C          -7.6886  -16.8558   22.8840 C.ar    1  UNL1        0.0157
      3 C          -8.5159  -15.9217   23.7164 C.ar    1  UNL1       -0.0011
      4 C          -7.8974  -15.2077   24.8815 C.ar    1  UNL1       -0.0002
      5 C          -6.4514  -15.4278   25.2143 C.ar    1  UNL1       -0.0003
      6 C          -5.6240  -16.3619   24.3819 C.ar    1  UNL1       -0.0044
      7 C          -6.2426  -17.0759   23.2168 C.ar    1  UNL1       -0.0202
      8 C          -5.6811  -18.0488   22.2228 C.3     1  UNL1        0.0584
      9 C          -6.7801  -18.4301   21.2757 C.3     1  UNL1        0.1471
     10 O          -7.6580  -18.9899   20.1960 O.3     1  UNL1       -0.3812
     11 H          -7.1430  -19.5985   19.6435 H       1  UNL1        0.2105
     12 O          -9.3587  -17.7774   21.0115 O.3     1  UNL1       -0.4726
     13 C         -11.0493  -18.7094   22.7503 C.ar    1  UNL1        0.0118
     14 C         -12.3050  -18.5509   23.5554 C.ar    1  UNL1       -0.0013
     15 C         -13.1258  -17.3021   23.4267 C.ar    1  UNL1       -0.0001
     16 C         -12.6909  -16.2116   22.4931 C.ar    1  UNL1        0.0031
     17 C         -11.4353  -16.3701   21.6880 C.ar    1  UNL1        0.0366
     18 C         -10.6145  -17.6189   21.8167 C.ar    1  UNL1        0.1349
     19 C          -9.6324  -20.3309   24.2041 C.3     1  UNL1        0.0051
     20 C         -10.2285  -19.9583   22.8790 C.3     1  UNL1        0.0294
     21 C          -5.7230  -19.2845   20.6413 C.3     1  UNL1        0.1001
     22 N          -4.8088  -18.7008   19.6051 N.3     1  UNL1       -0.2942
     23 C          -3.3992  -19.1987   19.4825 C.3     1  UNL1        0.0859
     24 H          -4.7523  -17.6998   19.7926 H       1  UNL1        0.1234
@<TRIPOS>BOND
     1    19    20    1
     2    20    13    1
     3    13    14   ar
     4    14    15   ar
     5    15    16   ar
     6    16    17   ar
     7    17    18   ar
     8    18    12    1
     9     1    12    1
    10     1     2    1
    11     2     3   ar
    12     3     4   ar
    13     4     5   ar
    14     5     6   ar
    15     6     7   ar
    16     7     8    1
    17     8     9    1
    18     9    10    1
    19     9    21    1
    20    21    22    1
    21    22    23    1
    22    18    13   ar
    23     9     1    1
    24     7     2   ar
    25    10    11    1
    26    22    24    1
@<TRIPOS>MOLECULE
*****
 24 26 0 0 0
SMALL
GASTEIGER

@<TRIPOS>ATOM
      1 C          -7.7497  -16.4112   22.5539 C.3     1  UNL1        0.2136
      2 C          -7.3497  -17.7406   21.9858 C.ar    1  UNL1        0.0157
      3 C          -8.0276  -18.6628   21.0163 C.ar    1  UNL1       -0.0011
      4 C          -7.3717  -19.9539   20.6255 C.ar    1  UNL1       -0.0002
      5 C          -6.0379  -20.3228   21.2042 C.ar    1  UNL1       -0.0003
      6 C          -5.3600  -19.4006   22.1736 C.ar    1  UNL1       -0.0044
      7 C          -6.0159  -18.1095   22.5644 C.ar    1  UNL1       -0.0202
      8 C          -5.5916  -17.0081   23.4901 C.3     1  UNL1        0.0584
      9 C          -6.6632  -15.9585   23.4836 C.3     1  UNL1        0.1471
     10 O          -7.5462  -14.7620   23.6801 O.3     1  UNL1       -0.3812
     11 H          -7.1271  -14.1499   24.3050 H       1  UNL1        0.2105
     12 O          -9.0143  -15.6655   22.2462 O.3     1  UNL1       -0.4726
     13 C         -10.7846  -17.2830   23.2463 C.ar    1  UNL1        0.0118
     14 C         -12.0821  -18.0255   23.1234 C.ar    1  UNL1       -0.0013
     15 C         -12.9070  -17.8930   21.8776 C.ar    1  UNL1       -0.0001
     16 C         -12.4343  -17.0180   20.7547 C.ar    1  UNL1        0.0031
     17 C         -11.1368  -16.2756   20.8776 C.ar    1  UNL1        0.0366
     18 C         -10.3120  -16.4080   22.1234 C.ar    1  UNL1        0.1349
     19 C          -9.8724  -18.7367   25.1969 C.3     1  UNL1        0.0051
     20 C          -9.9597  -17.4155   24.4921 C.3     1  UNL1        0.0294
     21 C          -5.7612  -15.2557   24.4545 C.3     1  UNL1        0.1001
     22 N          -6.3330  -14.6325   25.6933 N.3     1  UNL1       -0.2942
     23 C          -6.4337  -15.4332   26.9577 C.3     1  UNL1        0.0859
     24 H          -7.2786  -14.3291   25.4608 H       1  UNL1        0.1234
@<TRIPOS>BOND
     1    19    20    1
     2    20    13    1
     3    13    14   ar
     4    14    15   ar
     5    15    16   ar
     6    16    17   ar
     7    17    18   ar
     8    18    12    1
     9     1    12    1
    10     1     2    1
    11     2     3   ar
    12     3     4   ar
    13     4     5   ar
    14     5     6   ar
    15     6     7   ar
    16     7     8    1
    17     8     9    1
    18     9    10    1
    19     9    21    1
    20    21    22    1
    21    22    23    1
    22    18    13   ar
    23     9     1    1
    24     7     2   ar
    25    10    11    1
    26    22    24    1
@<TRIPOS>MOLECULE
*****
 24 26 0 0 0
SMALL
GASTEIGER

@<TRIPOS>ATOM
      1 C          -8.0623  -17.1667   22.6124 C.3     1  UNL1        0.2136
      2 C          -9.1168  -18.1369   23.0562 C.ar    1  UNL1        0.0157
      3 C          -9.6280  -19.4102   22.4502 C.ar    1  UNL1       -0.0011
      4 C         -10.7138  -20.1845   23.1369 C.ar    1  UNL1       -0.0002
      5 C         -11.2883  -19.6854   24.4295 C.ar    1  UNL1       -0.0003
      6 C         -10.7771  -18.4120   25.0354 C.ar    1  UNL1       -0.0044
      7 C          -9.6914  -17.6377   24.3487 C.ar    1  UNL1       -0.0202
      8 C          -8.9920  -16.3592   24.7038 C.3     1  UNL1        0.0584
      9 C          -7.9852  -16.0680   23.6307 C.3     1  UNL1        0.1471
     10 O          -6.9155  -15.5234   22.7311 O.3     1  UNL1       -0.3812
     11 H          -6.5691  -14.6976   23.1038 H       1  UNL1        0.2105
     12 O          -7.2310  -17.2761   21.3686 O.3     1  UNL1       -0.4726
     13 C          -5.3202  -19.0107   21.6689 C.ar    1  UNL1        0.0118
     14 C          -4.6848  -20.3196   21.3042 C.ar    1  UNL1       -0.0013
     15 C          -5.3248  -21.2029   20.2745 C.ar    1  UNL1       -0.0001
     16 C          -6.6002  -20.7772   19.6095 C.ar    1  UNL1        0.0031
     17 C          -7.2356  -19.4683   19.9743 C.ar    1  UNL1        0.0366
     18 C          -6.5956  -18.5851   21.0039 C.ar    1  UNL1        0.1349
     19 C          -3.1931  -17.9305   22.6980 C.3     1  UNL1        0.0051
     20 C          -4.6802  -18.1274   22.6986 C.3     1  UNL1        0.0294
     21 C          -7.6844  -14.8555   24.4609 C.3     1  UNL1        0.1001
     22 N          -6.2686  -14.5410   24.8437 N.3     1  UNL1       -0.2942
     23 C          -5.6432  -15.2189   26.0267 C.3     1  UNL1        0.0859
     24 H          -6.2282  -13.5378   25.0239 H       1  UNL1        0.1234
@<TRIPOS>BOND
     1    19    20    1
     2    20    13    1
     3    13    14   ar
     4    14    15   ar
     5    15    16   ar
     6    16    17   ar
     7    17    18   ar
     8    18    12    1
     9     1    12    1
    10     1     2    1
    11     2     3   ar
    12     3     4   ar
    13     4     5   ar
    14     5     6   ar
    15     6     7   ar
    16     7     8    1
    17     8     9    1
    18     9    10    1
    19     9    21    1
    20    21    22    1
    21    22    23    1
    22    18    13   ar
    23     9     1    1
    24     7     2   ar
    25    10    11    1
    26    22    24    1
@<TRIPOS>MOLECULE
*****
 24 26 0 0 0
SMALL
GASTEIGER

@<TRIPOS>ATOM
      1 C          -6.3730  -18.8085   22.3161 C.3     1  UNL1        0.2136
      2 C          -6.7780  -17.5550   23.0336 C.ar    1  UNL1        0.0157
      3 C          -8.1222  -16.9879   23.3823 C.ar    1  UNL1       -0.0011
      4 C          -8.2181  -15.6859   24.1209 C.ar    1  UNL1       -0.0002
      5 C          -6.9699  -14.9510   24.5107 C.ar    1  UNL1       -0.0003
      6 C          -5.6258  -15.5182   24.1621 C.ar    1  UNL1       -0.0044
      7 C          -5.5299  -16.8202   23.4235 C.ar    1  UNL1       -0.0202
      8 C          -4.3534  -17.6195   22.9469 C.3     1  UNL1        0.0584
      9 C          -4.8744  -18.8483   22.2625 C.3     1  UNL1        0.1471
     10 O          -5.0918  -20.1420   21.5352 O.3     1  UNL1       -0.3812
     11 H          -4.2339  -20.5282   21.2989 H       1  UNL1        0.2105
     12 O          -7.3031  -19.8409   21.7513 O.3     1  UNL1       -0.4726
     13 C          -9.8008  -19.7464   22.4606 C.ar    1  UNL1        0.0118
     14 C         -11.2248  -19.3865   22.1564 C.ar    1  UNL1       -0.0013
     15 C         -11.5754  -18.7614   20.8387 C.ar    1  UNL1       -0.0001
     16 C         -10.5019  -18.4961   19.8252 C.ar    1  UNL1        0.0031
     17 C          -9.0778  -18.8559   20.1294 C.ar    1  UNL1        0.0366
     18 C          -8.7273  -19.4810   21.4471 C.ar    1  UNL1        0.1349
     19 C         -10.0569  -19.8430   25.0442 C.3     1  UNL1        0.0051
     20 C          -9.4502  -20.3715   23.7783 C.3     1  UNL1        0.0294
     21 C          -3.4214  -19.1585   22.0569 C.3     1  UNL1        0.1001
     22 N          -2.8433  -19.1600   20.6728 N.3     1  UNL1       -0.2942
     23 C          -1.4878  -18.5673   20.4255 C.3     1  UNL1        0.0859
     24 H          -3.4994  -18.6525   20.0792 H       1  UNL1        0.1234
@<TRIPOS>BOND
     1    19    20    1
     2    20    13    1
     3    13    14   ar
     4    14    15   ar
     5    15    16   ar
     6    16    17   ar
     7    17    18   ar
     8    18    12    1
     9     1    12    1
    10     1     2    1
    11     2     3   ar
    12     3     4   ar
    13     4     5   ar
    14     5     6   ar
    15     6     7   ar
    16     7     8    1
    17     8     9    1
    18     9    10    1
    19     9    21    1
    20    21    22    1
    21    22    23    1
    22    18    13   ar
    23     9     1    1
    24     7     2   ar
    25    10    11    1
    26    22    24    1
@<TRIPOS>MOLECULE
*****
 24 26 0 0 0
SMALL
GASTEIGER

@<TRIPOS>ATOM
      1 C          -7.5560  -18.3152   21.2251 C.3     1  UNL1        0.2136
      2 C          -7.8731  -19.3818   20.2191 C.ar    1  UNL1        0.0157
      3 C          -9.0476  -19.5854   19.3087 C.ar    1  UNL1       -0.0011
      4 C          -9.0885  -20.7713   18.3911 C.ar    1  UNL1       -0.0002
      5 C          -7.9548  -21.7536   18.3840 C.ar    1  UNL1       -0.0003
      6 C          -6.7803  -21.5499   19.2944 C.ar    1  UNL1       -0.0044
      7 C          -6.7394  -20.3640   20.2120 C.ar    1  UNL1       -0.0202
      8 C          -5.7217  -19.9045   21.2136 C.3     1  UNL1        0.0584
      9 C          -6.2264  -18.6383   21.8397 C.3     1  UNL1        0.1471
     10 O          -6.4635  -17.3848   22.6287 O.3     1  UNL1       -0.3812
     11 H          -5.7146  -17.2323   23.2262 H       1  UNL1        0.2105
     12 O          -8.4173  -17.1332   21.5579 O.3     1  UNL1       -0.4726
     13 C         -10.3385  -17.6011   23.2433 C.ar    1  UNL1        0.0118
     14 C         -11.7986  -17.7936   23.5280 C.ar    1  UNL1       -0.0013
     15 C         -12.7977  -17.7104   22.4123 C.ar    1  UNL1       -0.0001
     16 C         -12.3367  -17.4349   21.0117 C.ar    1  UNL1        0.0031
     17 C         -10.8766  -17.2425   20.7270 C.ar    1  UNL1        0.0366
     18 C          -9.8775  -17.3256   21.8427 C.ar    1  UNL1        0.1349
     19 C          -8.8702  -16.4330   25.0404 C.3     1  UNL1        0.0051
     20 C          -9.3394  -17.6843   24.3591 C.3     1  UNL1        0.0294
     21 C          -4.9463  -18.6993   22.6192 C.3     1  UNL1        0.1001
     22 N          -4.0853  -17.4774   22.7442 N.3     1  UNL1       -0.2942
     23 C          -2.6323  -17.5430   22.3774 C.3     1  UNL1        0.0859
     24 H          -4.1296  -17.1845   23.7203 H       1  UNL1        0.1234
@<TRIPOS>BOND
     1    19    20    1
     2    20    13    1
     3    13    14   ar
     4    14    15   ar
     5    15    16   ar
     6    16    17   ar
     7    17    18   ar
     8    18    12    1
     9     1    12    1
    10     1     2    1
    11     2     3   ar
    12     3     4   ar
    13     4     5   ar
    14     5     6   ar
    15     6     7   ar
    16     7     8    1
    17     8     9    1
    18     9    10    1
    19     9    21    1
    20    21    22    1
    21    22    23    1
    22    18    13   ar
    23     9     1    1
    24     7     2   ar
    25    10    11    1
    26    22    24    1
@<TRIPOS>MOLECULE
*****
 24 26 0 0 0
SMALL
GASTEIGER

@<TRIPOS>ATOM
      1 C          -6.9977  -17.3882   23.0713 C.3     1  UNL1        0.2136
      2 C          -7.2925  -16.6286   24.3308 C.ar    1  UNL1        0.0157
      3 C          -8.5794  -16.3074   25.0312 C.ar    1  UNL1       -0.0011
      4 C          -8.5628  -15.5122   26.3029 C.ar    1  UNL1       -0.0002
      5 C          -7.2593  -15.0382   26.8742 C.ar    1  UNL1       -0.0003
      6 C          -5.9724  -15.3595   26.1738 C.ar    1  UNL1       -0.0044
      7 C          -5.9890  -16.1547   24.9020 C.ar    1  UNL1       -0.0202
      8 C          -4.8887  -16.6213   23.9956 C.3     1  UNL1        0.0584
      9 C          -5.5121  -17.3837   22.8642 C.3     1  UNL1        0.1471
     10 O          -5.8392  -18.1798   21.6357 O.3     1  UNL1       -0.3812
     11 H          -5.0200  -18.3997   21.1652 H       1  UNL1        0.2105
     12 O          -8.0108  -18.0381   22.1761 O.3     1  UNL1       -0.4726
     13 C         -10.4435  -18.6265   22.8732 C.ar    1  UNL1        0.0118
     14 C         -11.8912  -18.2491   22.9808 C.ar    1  UNL1       -0.0013
     15 C         -12.3541  -16.9060   22.4992 C.ar    1  UNL1       -0.0001
     16 C         -11.3691  -15.9403   21.9099 C.ar    1  UNL1        0.0031
     17 C          -9.9214  -16.3177   21.8022 C.ar    1  UNL1        0.0366
     18 C          -9.4586  -17.6607   22.2838 C.ar    1  UNL1        0.1349
     19 C          -9.8493  -20.2346   24.8253 C.3     1  UNL1        0.0051
     20 C          -9.9807  -19.9695   23.3548 C.3     1  UNL1        0.0294
     21 C          -4.0949  -17.5456   22.4003 C.3     1  UNL1        0.1001
     22 N          -3.1549  -16.3772   22.4389 N.3     1  UNL1       -0.2942
     23 C          -1.9522  -16.3522   21.5429 C.3     1  UNL1        0.0859
     24 H          -2.8102  -16.3082   23.3964 H       1  UNL1        0.1234
@<TRIPOS>BOND
     1    19    20    1
     2    20    13    1
     3    13    14   ar
     4    14    15   ar
     5    15    16   ar
     6    16    17   ar
     7    17    18   ar
     8    18    12    1
     9     1    12    1
    10     1     2    1
    11     2     3   ar
    12     3     4   ar
    13     4     5   ar
    14     5     6   ar
    15     6     7   ar
    16     7     8    1
    17     8     9    1
    18     9    10    1
    19     9    21    1
    20    21    22    1
    21    22    23    1
    22    18    13   ar
    23     9     1    1
    24     7     2   ar
    25    10    11    1
    26    22    24    1
