@<TRIPOS>MOLECULE
*****
 31 34 0 0 0
SMALL
GASTEIGER

@<TRIPOS>ATOM
      1 C          -9.5117  -19.2048   20.9594 C.ar    1  UNL1        0.1311
      2 C          -8.9358  -19.1809   19.5745 C.ar    1  UNL1        0.0339
      3 C          -7.5610  -19.7262   19.3246 C.ar    1  UNL1        0.0027
      4 C          -6.7621  -20.2954   20.4593 C.ar    1  UNL1        0.0283
      5 C          -7.3380  -20.3193   21.8442 C.ar    1  UNL1        0.2196
      6 F          -6.5390  -20.8885   22.9789 F       1  UNL1       -0.1835
      7 N          -8.7128  -19.7740   22.0942 N.ar    1  UNL1       -0.2035
      8 N         -10.8865  -18.6595   21.2095 N.pl3   1  UNL1       -0.3132
      9 H         -11.6774  -19.2183   21.0320 H       1  UNL1        0.1485
     10 C         -11.0563  -17.2630   21.7300 C.3     1  UNL1        0.1349
     11 C          -7.7104  -15.2843   23.9969 C.ar    1  UNL1        0.1850
     12 C          -7.7343  -15.2324   22.4980 C.ar    1  UNL1        0.1376
     13 N          -8.8496  -15.8919   21.7424 N.ar    1  UNL1       -0.2431
     14 C          -9.9411  -16.6035   22.4857 C.ar    1  UNL1        0.0813
     15 C          -9.9172  -16.6554   23.9846 C.ar    1  UNL1        0.0492
     16 C          -8.8019  -15.9958   24.7402 C.ar    1  UNL1        0.1766
     17 F          -8.7780  -16.0478   26.2391 F       1  UNL1       -0.2009
     18 C          -6.0743  -15.2459   26.0148 C.3     1  UNL1        0.2527
     19 O          -6.5951  -14.6248   24.7526 O.3     1  UNL1       -0.4676
     20 C          -5.3872  -20.8407   20.2092 C.3     1  UNL1        0.0582
     21 C          -4.2186  -19.9068   20.0991 C.ar    1  UNL1        0.0044
     22 C          -3.3560  -19.7129   18.8874 C.ar    1  UNL1        0.0966
     23 N          -2.3117  -18.6891   19.2209 N.ar    1  UNL1       -0.2273
     24 C          -2.5288  -18.2503   20.6387 C.ar    1  UNL1        0.1402
     25 N          -1.8056  -17.2627   21.5056 N.ar    1  UNL1       -0.3377
     26 C          -2.2610  -17.0276   22.9153 C.ar    1  UNL1        0.0691
     27 C          -3.4395  -17.7802   23.4581 C.ar    1  UNL1       -0.0047
     28 C          -3.8949  -17.5451   24.8679 C.3     1  UNL1        0.0326
     29 C          -4.1627  -18.7678   22.5912 C.ar    1  UNL1       -0.0001
     30 C          -3.7073  -19.0029   21.1815 C.ar    1  UNL1        0.0315
     31 H          -1.0321  -16.7687   21.1493 H       1  UNL1        0.1674
@<TRIPOS>BOND
     1    18    19    1
     2    19    11    1
     3    11    12   ar
     4    12    13   ar
     5    13    14   ar
     6    14    10    1
     7    10     8    1
     8     8     1    1
     9     1     2   ar
    10     2     3   ar
    11     3     4   ar
    12     4    20    1
    13    20    21    1
    14    21    22   ar
    15    22    23   ar
    16    23    24   ar
    17    24    25   ar
    18    25    26   ar
    19    26    27   ar
    20    27    28    1
    21    27    29   ar
    22    29    30   ar
    23     4     5   ar
    24     5     6    1
    25     5     7   ar
    26    14    15   ar
    27    15    16   ar
    28    16    17    1
    29    16    11   ar
    30     7     1   ar
    31    30    21   ar
    32    30    24    1
    33     8     9    1
    34    25    31    1
@<TRIPOS>MOLECULE
*****
 31 34 0 0 0
SMALL
GASTEIGER

@<TRIPOS>ATOM
      1 C          -0.7199    2.2958   20.3047 C.ar    1  UNL1        0.1311
      2 C           0.0620    3.1254   19.3297 C.ar    1  UNL1        0.0339
      3 C           1.2183    2.5214   18.5894 C.ar    1  UNL1        0.0027
      4 C           1.5928    1.0880   18.8241 C.ar    1  UNL1        0.0283
      5 C           0.8110    0.2585   19.7991 C.ar    1  UNL1        0.2196
      6 F           1.1855   -1.1749   20.0337 F       1  UNL1       -0.1835
      7 N          -0.3454    0.8624   20.5394 N.ar    1  UNL1       -0.2035
      8 N          -1.8762    2.8997   21.0451 N.pl3   1  UNL1       -0.3132
      9 H          -1.7942    3.1027   22.0049 H       1  UNL1        0.1485
     10 C          -3.1577    3.1943   20.3231 C.3     1  UNL1        0.1349
     11 C          -6.8553    4.2717   22.6505 C.ar    1  UNL1        0.1850
     12 C          -6.8138    4.4869   21.1666 C.ar    1  UNL1        0.1376
     13 N          -5.5812    4.1277   20.3908 N.ar    1  UNL1       -0.2431
     14 C          -4.3902    3.5534   21.0990 C.ar    1  UNL1        0.0813
     15 C          -4.4316    3.3381   22.5828 C.ar    1  UNL1        0.0492
     16 C          -5.6642    3.6973   23.3586 C.ar    1  UNL1        0.1766
     17 F          -5.7057    3.4821   24.8425 F       1  UNL1       -0.2009
     18 C          -8.0555    5.7720   24.3993 C.3     1  UNL1        0.2527
     19 O          -8.0878    4.6308   23.4263 O.3     1  UNL1       -0.4676
     20 C           2.7492    0.4841   18.0837 C.3     1  UNL1        0.0582
     21 C           4.0323    0.1941   18.8046 C.ar    1  UNL1        0.0044
     22 C           4.9755    1.2139   19.3707 C.ar    1  UNL1        0.0966
     23 N           6.1234    0.4834   20.0020 N.ar    1  UNL1       -0.2273
     24 C           5.8897   -0.9878   19.8262 C.ar    1  UNL1        0.1402
     25 N           6.6868   -2.1877   20.2443 N.ar    1  UNL1       -0.3377
     26 C           6.1914   -3.5664   19.9224 C.ar    1  UNL1        0.0691
     27 C           4.8990   -3.7452   19.1824 C.ar    1  UNL1       -0.0047
     28 C           4.4036   -5.1241   18.8605 C.3     1  UNL1        0.0326
     29 C           4.1019   -2.5453   18.7643 C.ar    1  UNL1       -0.0001
     30 C           4.5973   -1.1666   19.0861 C.ar    1  UNL1        0.0315
     31 H           7.5351   -2.0703   20.7300 H       1  UNL1        0.1674
@<TRIPOS>BOND
     1    18    19    1
     2    19    11    1
     3    11    12   ar
     4    12    13   ar
     5    13    14   ar
     6    14    10    1
     7    10     8    1
     8     8     1    1
     9     1     2   ar
    10     2     3   ar
    11     3     4   ar
    12     4    20    1
    13    20    21    1
    14    21    22   ar
    15    22    23   ar
    16    23    24   ar
    17    24    25   ar
    18    25    26   ar
    19    26    27   ar
    20    27    28    1
    21    27    29   ar
    22    29    30   ar
    23     4     5   ar
    24     5     6    1
    25     5     7   ar
    26    14    15   ar
    27    15    16   ar
    28    16    17    1
    29    16    11   ar
    30     7     1   ar
    31    30    21   ar
    32    30    24    1
    33     8     9    1
    34    25    31    1
@<TRIPOS>MOLECULE
*****
 31 34 0 0 0
SMALL
GASTEIGER

@<TRIPOS>ATOM
      1 C          -5.0893  -19.3916   21.5861 C.ar    1  UNL1        0.1311
      2 C          -5.4680  -20.5404   20.6990 C.ar    1  UNL1        0.0339
      3 C          -6.8092  -20.5589   20.0276 C.ar    1  UNL1        0.0027
      4 C          -7.7716  -19.4287   20.2431 C.ar    1  UNL1        0.0283
      5 C          -7.3928  -18.2800   21.1302 C.ar    1  UNL1        0.2196
      6 F          -8.3552  -17.1498   21.3458 F       1  UNL1       -0.1835
      7 N          -6.0517  -18.2615   21.8017 N.ar    1  UNL1       -0.2035
      8 N          -3.7481  -19.3730   22.2576 N.pl3   1  UNL1       -0.3132
      9 H          -3.2199  -20.2011   22.3251 H       1  UNL1        0.1485
     10 C          -3.2117  -18.0928   22.8264 C.3     1  UNL1        0.1349
     11 C          -5.4942  -15.9302   26.0455 C.ar    1  UNL1        0.1850
     12 C          -4.5179  -17.0080   26.4133 C.ar    1  UNL1        0.1376
     13 N          -3.7571  -17.7288   25.3403 N.ar    1  UNL1       -0.2431
     14 C          -3.9725  -17.3719   23.8993 C.ar    1  UNL1        0.0813
     15 C          -4.9488  -16.2942   23.5315 C.ar    1  UNL1        0.0492
     16 C          -5.7097  -15.5733   24.6046 C.ar    1  UNL1        0.1766
     17 F          -6.6859  -14.4956   24.2367 F       1  UNL1       -0.2009
     18 C          -7.7286  -15.4405   27.2773 C.3     1  UNL1        0.2527
     19 O          -6.2550  -15.2093   27.1185 O.3     1  UNL1       -0.4676
     20 C          -9.1128  -19.4473   19.5716 C.3     1  UNL1        0.0582
     21 C         -10.2913  -18.7953   20.2320 C.ar    1  UNL1        0.0044
     22 C         -11.2616  -17.8575   19.5771 C.ar    1  UNL1        0.0966
     23 N         -12.2764  -17.4493   20.6036 N.ar    1  UNL1       -0.2273
     24 C         -11.9332  -18.1348   21.8929 C.ar    1  UNL1        0.1402
     25 N         -12.5793  -18.1090   23.2463 N.ar    1  UNL1       -0.3377
     26 C         -11.9985  -18.9151   24.3701 C.ar    1  UNL1        0.0691
     27 C         -10.7717  -19.7471   24.1404 C.ar    1  UNL1       -0.0047
     28 C         -10.1909  -20.5532   25.2642 C.3     1  UNL1        0.0326
     29 C         -10.1256  -19.7729   22.7870 C.ar    1  UNL1       -0.0001
     30 C         -10.7063  -18.9667   21.6632 C.ar    1  UNL1        0.0315
     31 H         -13.3845  -17.5630   23.3970 H       1  UNL1        0.1674
@<TRIPOS>BOND
     1    18    19    1
     2    19    11    1
     3    11    12   ar
     4    12    13   ar
     5    13    14   ar
     6    14    10    1
     7    10     8    1
     8     8     1    1
     9     1     2   ar
    10     2     3   ar
    11     3     4   ar
    12     4    20    1
    13    20    21    1
    14    21    22   ar
    15    22    23   ar
    16    23    24   ar
    17    24    25   ar
    18    25    26   ar
    19    26    27   ar
    20    27    28    1
    21    27    29   ar
    22    29    30   ar
    23     4     5   ar
    24     5     6    1
    25     5     7   ar
    26    14    15   ar
    27    15    16   ar
    28    16    17    1
    29    16    11   ar
    30     7     1   ar
    31    30    21   ar
    32    30    24    1
    33     8     9    1
    34    25    31    1
@<TRIPOS>MOLECULE
*****
 31 34 0 0 0
SMALL
GASTEIGER

@<TRIPOS>ATOM
      1 C          -4.6601  -19.0801   21.0328 C.ar    1  UNL1        0.1311
      2 C          -5.2112  -19.7561   22.2532 C.ar    1  UNL1        0.0339
      3 C          -6.6487  -20.1831   22.2892 C.ar    1  UNL1        0.0027
      4 C          -7.5350  -19.9341   21.1050 C.ar    1  UNL1        0.0283
      5 C          -6.9839  -19.2581   19.8846 C.ar    1  UNL1        0.2196
      6 F          -7.8702  -19.0091   18.7004 F       1  UNL1       -0.1835
      7 N          -5.5465  -18.8311   19.8486 N.ar    1  UNL1       -0.2035
      8 N          -3.2227  -18.6531   20.9967 N.pl3   1  UNL1       -0.3132
      9 H          -2.5685  -19.1704   20.4734 H       1  UNL1        0.1485
     10 C          -2.7817  -17.4380   21.7577 C.3     1  UNL1        0.1349
     11 C          -4.9375  -16.2345   25.5199 C.ar    1  UNL1        0.1850
     12 C          -5.2249  -15.5237   24.2307 C.ar    1  UNL1        0.1376
     13 N          -4.5063  -15.9248   22.9766 N.ar    1  UNL1       -0.2431
     14 C          -3.5003  -17.0369   23.0118 C.ar    1  UNL1        0.0813
     15 C          -3.2129  -17.7478   24.3010 C.ar    1  UNL1        0.0492
     16 C          -3.9315  -17.3466   25.5550 C.ar    1  UNL1        0.1766
     17 F          -3.6440  -18.0575   26.8442 F       1  UNL1       -0.2009
     18 C          -7.1206  -15.5122   26.7291 C.3     1  UNL1        0.2527
     19 O          -5.6561  -15.8334   26.7739 O.3     1  UNL1       -0.4676
     20 C          -8.9726  -20.3611   21.1411 C.3     1  UNL1        0.0582
     21 C          -9.9418  -19.6566   22.0435 C.ar    1  UNL1        0.0044
     22 C         -10.2792  -20.0475   23.4519 C.ar    1  UNL1        0.0966
     23 N         -11.2897  -19.0700   23.9747 N.ar    1  UNL1       -0.2273
     24 C         -11.5768  -18.0750   22.8895 C.ar    1  UNL1        0.1402
     25 N         -12.4892  -16.8857   22.8340 N.ar    1  UNL1       -0.3377
     26 C         -12.5685  -16.0590   21.5850 C.ar    1  UNL1        0.0691
     27 C         -11.7354  -16.4216   20.3914 C.ar    1  UNL1       -0.0047
     28 C         -11.8148  -15.5948   19.1423 C.3     1  UNL1        0.0326
     29 C         -10.8231  -17.6109   20.4469 C.ar    1  UNL1       -0.0001
     30 C         -10.7438  -18.4376   21.6960 C.ar    1  UNL1        0.0315
     31 H         -13.0359  -16.6477   23.6174 H       1  UNL1        0.1674
@<TRIPOS>BOND
     1    18    19    1
     2    19    11    1
     3    11    12   ar
     4    12    13   ar
     5    13    14   ar
     6    14    10    1
     7    10     8    1
     8     8     1    1
     9     1     2   ar
    10     2     3   ar
    11     3     4   ar
    12     4    20    1
    13    20    21    1
    14    21    22   ar
    15    22    23   ar
    16    23    24   ar
    17    24    25   ar
    18    25    26   ar
    19    26    27   ar
    20    27    28    1
    21    27    29   ar
    22    29    30   ar
    23     4     5   ar
    24     5     6    1
    25     5     7   ar
    26    14    15   ar
    27    15    16   ar
    28    16    17    1
    29    16    11   ar
    30     7     1   ar
    31    30    21   ar
    32    30    24    1
    33     8     9    1
    34    25    31    1
@<TRIPOS>MOLECULE
*****
 31 34 0 0 0
SMALL
GASTEIGER

@<TRIPOS>ATOM
      1 C          -7.6236  -19.7136   20.9912 C.ar    1  UNL1        0.1311
      2 C          -7.7450  -20.3256   22.3553 C.ar    1  UNL1        0.0339
      3 C          -8.4720  -19.5932   23.4438 C.ar    1  UNL1        0.0027
      4 C          -9.0776  -18.2488   23.1684 C.ar    1  UNL1        0.0283
      5 C          -8.9562  -17.6368   21.8043 C.ar    1  UNL1        0.2196
      6 F          -9.5617  -16.2924   21.5288 F       1  UNL1       -0.1835
      7 N          -8.2292  -18.3692   20.7157 N.ar    1  UNL1       -0.2035
      8 N          -6.8966  -20.4460   19.9026 N.pl3   1  UNL1       -0.3132
      9 H          -7.3380  -20.6060   19.0372 H       1  UNL1        0.1485
     10 C          -5.4971  -20.9346   20.1323 C.3     1  UNL1        0.1349
     11 C          -2.1405  -17.9831   20.6534 C.ar    1  UNL1        0.1850
     12 C          -2.4158  -18.5751   19.3029 C.ar    1  UNL1        0.1376
     13 N          -3.5347  -19.5589   19.1293 N.ar    1  UNL1       -0.2431
     14 C          -4.3783  -19.9508   20.3061 C.ar    1  UNL1        0.0813
     15 C          -4.1030  -19.3588   21.6565 C.ar    1  UNL1        0.0492
     16 C          -2.9841  -18.3750   21.8302 C.ar    1  UNL1        0.1766
     17 F          -2.7088  -17.7830   23.1806 F       1  UNL1       -0.2009
     18 C           0.2738  -17.2004   20.0982 C.3     1  UNL1        0.2527
     19 O          -1.0217  -16.9993   20.8271 O.3     1  UNL1       -0.4676
     20 C          -9.8046  -17.5164   24.2570 C.3     1  UNL1        0.0582
     21 C          -9.0407  -16.9360   25.4101 C.ar    1  UNL1        0.0044
     22 C          -9.4714  -16.9452   26.8470 C.ar    1  UNL1        0.0966
     23 N          -8.4088  -16.2594   27.6536 N.ar    1  UNL1       -0.2273
     24 C          -7.3215  -15.8265   26.7154 C.ar    1  UNL1        0.1402
     25 N          -6.0263  -15.1055   26.9445 N.ar    1  UNL1       -0.3377
     26 C          -5.1216  -14.8026   25.7871 C.ar    1  UNL1        0.0691
     27 C          -5.5122  -15.2208   24.4005 C.ar    1  UNL1       -0.0047
     28 C          -4.6074  -14.9179   23.2430 C.3     1  UNL1        0.0326
     29 C          -6.8074  -15.9418   24.1714 C.ar    1  UNL1       -0.0001
     30 C          -7.7121  -16.2446   25.3288 C.ar    1  UNL1        0.0315
     31 H          -5.7700  -14.8310   27.8546 H       1  UNL1        0.1674
@<TRIPOS>BOND
     1    18    19    1
     2    19    11    1
     3    11    12   ar
     4    12    13   ar
     5    13    14   ar
     6    14    10    1
     7    10     8    1
     8     8     1    1
     9     1     2   ar
    10     2     3   ar
    11     3     4   ar
    12     4    20    1
    13    20    21    1
    14    21    22   ar
    15    22    23   ar
    16    23    24   ar
    17    24    25   ar
    18    25    26   ar
    19    26    27   ar
    20    27    28    1
    21    27    29   ar
    22    29    30   ar
    23     4     5   ar
    24     5     6    1
    25     5     7   ar
    26    14    15   ar
    27    15    16   ar
    28    16    17    1
    29    16    11   ar
    30     7     1   ar
    31    30    21   ar
    32    30    24    1
    33     8     9    1
    34    25    31    1
@<TRIPOS>MOLECULE
*****
 31 34 0 0 0
SMALL
GASTEIGER

@<TRIPOS>ATOM
      1 C           6.0492   -2.4033   24.8017 C.ar    1  UNL1        0.1311
      2 C           4.6650   -2.0372   24.3547 C.ar    1  UNL1        0.0339
      3 C           4.1450   -2.5367   23.0394 C.ar    1  UNL1        0.0027
      4 C           5.0092   -3.4021   22.1710 C.ar    1  UNL1        0.0283
      5 C           6.3935   -3.7682   22.6180 C.ar    1  UNL1        0.2196
      6 F           7.2577   -4.6337   21.7497 F       1  UNL1       -0.1835
      7 N           6.9135   -3.2688   23.9334 N.ar    1  UNL1       -0.2035
      8 N           6.5693   -1.9039   26.1171 N.pl3   1  UNL1       -0.3132
      9 H           7.4505   -1.4676   26.1643 H       1  UNL1        0.1485
     10 C           5.7466   -2.0693   27.3605 C.3     1  UNL1        0.1349
     11 C           6.9639   -5.0750   30.4803 C.ar    1  UNL1        0.1850
     12 C           6.7979   -5.5019   29.0520 C.ar    1  UNL1        0.1376
     13 N           6.3921   -4.5000   28.0120 N.ar    1  UNL1       -0.2431
     14 C           6.1524   -3.0711   28.4005 C.ar    1  UNL1        0.0813
     15 C           6.3184   -2.6442   29.8288 C.ar    1  UNL1        0.0492
     16 C           6.7241   -3.6461   30.8687 C.ar    1  UNL1        0.1766
     17 F           6.8901   -3.2192   32.2971 F       1  UNL1       -0.2009
     18 C           8.7459   -6.6728   31.4910 C.3     1  UNL1        0.2527
     19 O           7.3696   -6.0769   31.5203 O.3     1  UNL1       -0.4676
     20 C           4.4892   -3.9016   20.8556 C.3     1  UNL1        0.0582
     21 C           4.4827   -2.9966   19.6593 C.ar    1  UNL1        0.0044
     22 C           5.4486   -3.0439   18.5127 C.ar    1  UNL1        0.0966
     23 N           5.0720   -1.9620   17.5445 N.ar    1  UNL1       -0.2273
     24 C           3.8732   -1.2461   18.0926 C.ar    1  UNL1        0.1402
     25 N           3.0663   -0.0945   17.5704 N.ar    1  UNL1       -0.3377
     26 C           1.8952    0.4176   18.3552 C.ar    1  UNL1        0.0691
     27 C           1.5310   -0.2218   19.6623 C.ar    1  UNL1       -0.0047
     28 C           0.3597    0.2904   20.4472 C.3     1  UNL1        0.0326
     29 C           2.3379   -1.3734   20.1846 C.ar    1  UNL1       -0.0001
     30 C           3.5090   -1.8855   19.3997 C.ar    1  UNL1        0.0315
     31 H           3.3054    0.3251   16.7125 H       1  UNL1        0.1674
@<TRIPOS>BOND
     1    18    19    1
     2    19    11    1
     3    11    12   ar
     4    12    13   ar
     5    13    14   ar
     6    14    10    1
     7    10     8    1
     8     8     1    1
     9     1     2   ar
    10     2     3   ar
    11     3     4   ar
    12     4    20    1
    13    20    21    1
    14    21    22   ar
    15    22    23   ar
    16    23    24   ar
    17    24    25   ar
    18    25    26   ar
    19    26    27   ar
    20    27    28    1
    21    27    29   ar
    22    29    30   ar
    23     4     5   ar
    24     5     6    1
    25     5     7   ar
    26    14    15   ar
    27    15    16   ar
    28    16    17    1
    29    16    11   ar
    30     7     1   ar
    31    30    21   ar
    32    30    24    1
    33     8     9    1
    34    25    31    1
@<TRIPOS>MOLECULE
*****
 31 34 0 0 0
SMALL
GASTEIGER

@<TRIPOS>ATOM
      1 C           6.7295   -2.9641   24.4208 C.ar    1  UNL1        0.1311
      2 C           5.2667   -2.6525   24.3067 C.ar    1  UNL1        0.0339
      3 C           4.5243   -2.9889   23.0475 C.ar    1  UNL1        0.0027
      4 C           5.2446   -3.6369   21.9025 C.ar    1  UNL1        0.0283
      5 C           6.7075   -3.9485   22.0165 C.ar    1  UNL1        0.2196
      6 F           7.4278   -4.5965   20.8715 F       1  UNL1       -0.1835
      7 N           7.4499   -3.6120   23.2757 N.ar    1  UNL1       -0.2035
      8 N           7.4721   -2.6276   25.6799 N.pl3   1  UNL1       -0.3132
      9 H           7.6947   -1.6908   25.8847 H       1  UNL1        0.1485
     10 C           7.8754   -3.7186   26.6272 C.3     1  UNL1        0.1349
     11 C           6.5323   -3.5814   30.9198 C.ar    1  UNL1        0.1850
     12 C           6.5929   -2.3189   30.1122 C.ar    1  UNL1        0.1376
     13 N           7.0406   -2.3646   28.6813 N.ar    1  UNL1       -0.2431
     14 C           7.4277   -3.6729   28.0581 C.ar    1  UNL1        0.0813
     15 C           7.3670   -4.9355   28.8657 C.ar    1  UNL1        0.0492
     16 C           6.9193   -4.8897   30.2965 C.ar    1  UNL1        0.1766
     17 F           6.8587   -6.1523   31.1041 F       1  UNL1       -0.2009
     18 C           5.2640   -2.3808   32.8433 C.3     1  UNL1        0.2527
     19 O           6.0846   -3.5358   32.3507 O.3     1  UNL1       -0.4676
     20 C           4.5021   -3.9733   20.6432 C.3     1  UNL1        0.0582
     21 C           4.4891   -3.0041   19.4985 C.ar    1  UNL1        0.0044
     22 C           5.4468   -2.9903   18.3441 C.ar    1  UNL1        0.0966
     23 N           5.0657   -1.8562   17.4393 N.ar    1  UNL1       -0.2273
     24 C           3.8726   -1.1691   18.0346 C.ar    1  UNL1        0.1402
     25 N           3.0646    0.0109   17.5822 N.ar    1  UNL1       -0.3377
     26 C           1.9002    0.4814   18.4024 C.ar    1  UNL1        0.0691
     27 C           1.5439   -0.2281   19.6750 C.ar    1  UNL1       -0.0047
     28 C           0.3794    0.2425   20.4953 C.3     1  UNL1        0.0326
     29 C           2.3519   -1.4081   20.1275 C.ar    1  UNL1       -0.0001
     30 C           3.5162   -1.8786   19.3072 C.ar    1  UNL1        0.0315
     31 H           3.2985    0.4766   16.7469 H       1  UNL1        0.1674
@<TRIPOS>BOND
     1    18    19    1
     2    19    11    1
     3    11    12   ar
     4    12    13   ar
     5    13    14   ar
     6    14    10    1
     7    10     8    1
     8     8     1    1
     9     1     2   ar
    10     2     3   ar
    11     3     4   ar
    12     4    20    1
    13    20    21    1
    14    21    22   ar
    15    22    23   ar
    16    23    24   ar
    17    24    25   ar
    18    25    26   ar
    19    26    27   ar
    20    27    28    1
    21    27    29   ar
    22    29    30   ar
    23     4     5   ar
    24     5     6    1
    25     5     7   ar
    26    14    15   ar
    27    15    16   ar
    28    16    17    1
    29    16    11   ar
    30     7     1   ar
    31    30    21   ar
    32    30    24    1
    33     8     9    1
    34    25    31    1
@<TRIPOS>MOLECULE
*****
 31 34 0 0 0
SMALL
GASTEIGER

@<TRIPOS>ATOM
      1 C           4.2770   -2.0334   24.2507 C.ar    1  UNL1        0.1311
      2 C           4.9685   -3.0844   23.4339 C.ar    1  UNL1        0.0339
      3 C           4.7412   -3.1532   21.9528 C.ar    1  UNL1        0.0027
      4 C           3.8224   -2.1711   21.2886 C.ar    1  UNL1        0.0283
      5 C           3.1309   -1.1200   22.1054 C.ar    1  UNL1        0.2196
      6 F           2.2122   -0.1379   21.4411 F       1  UNL1       -0.1835
      7 N           3.3582   -1.0512   23.5864 N.ar    1  UNL1       -0.2035
      8 N           4.5043   -1.9644   25.7317 N.pl3   1  UNL1       -0.3132
      9 H           4.7086   -2.7843   26.2370 H       1  UNL1        0.1485
     10 C           4.4203   -0.6464   26.4430 C.3     1  UNL1        0.1349
     11 C           0.7745    0.3681   28.8777 C.ar    1  UNL1        0.1850
     12 C           1.7935   -0.5913   29.4173 C.ar    1  UNL1        0.1376
     13 N           3.0088   -0.9294   28.6057 N.ar    1  UNL1       -0.2431
     14 C           3.2050   -0.3082   27.2545 C.ar    1  UNL1        0.0813
     15 C           2.1860    0.6511   26.7150 C.ar    1  UNL1        0.0492
     16 C           0.9707    0.9893   27.5266 C.ar    1  UNL1        0.1766
     17 F          -0.0484    1.9486   26.9870 F       1  UNL1       -0.2009
     18 C          -1.7764    0.1363   29.3130 C.3     1  UNL1        0.2527
     19 O          -0.4408    0.7063   29.6893 O.3     1  UNL1       -0.4676
     20 C           3.5951   -2.2400   19.8074 C.3     1  UNL1        0.0582
     21 C           4.7050   -1.8897   18.8612 C.ar    1  UNL1        0.0044
     22 C           5.6790   -2.8526   18.2495 C.ar    1  UNL1        0.0966
     23 N           6.6117   -2.0729   17.3708 N.ar    1  UNL1       -0.2273
     24 C           6.2143   -0.6281   17.4395 C.ar    1  UNL1        0.1402
     25 N           6.7731    0.5990   16.7823 N.ar    1  UNL1       -0.3377
     26 C           6.1536    1.9392   17.0463 C.ar    1  UNL1        0.0691
     27 C           4.9751    2.0525   17.9674 C.ar    1  UNL1       -0.0047
     28 C           4.3556    3.3929   18.2313 C.3     1  UNL1        0.0326
     29 C           4.4163    0.8254   18.6246 C.ar    1  UNL1       -0.0001
     30 C           5.0358   -0.5149   18.3606 C.ar    1  UNL1        0.0315
     31 H           7.5466    0.5246   16.1778 H       1  UNL1        0.1674
@<TRIPOS>BOND
     1    18    19    1
     2    19    11    1
     3    11    12   ar
     4    12    13   ar
     5    13    14   ar
     6    14    10    1
     7    10     8    1
     8     8     1    1
     9     1     2   ar
    10     2     3   ar
    11     3     4   ar
    12     4    20    1
    13    20    21    1
    14    21    22   ar
    15    22    23   ar
    16    23    24   ar
    17    24    25   ar
    18    25    26   ar
    19    26    27   ar
    20    27    28    1
    21    27    29   ar
    22    29    30   ar
    23     4     5   ar
    24     5     6    1
    25     5     7   ar
    26    14    15   ar
    27    15    16   ar
    28    16    17    1
    29    16    11   ar
    30     7     1   ar
    31    30    21   ar
    32    30    24    1
    33     8     9    1
    34    25    31    1
@<TRIPOS>MOLECULE
*****
 31 34 0 0 0
SMALL
GASTEIGER

@<TRIPOS>ATOM
      1 C           5.7167   -2.0971   24.9826 C.ar    1  UNL1        0.1311
      2 C           4.4173   -1.6880   24.3549 C.ar    1  UNL1        0.0339
      3 C           4.0060   -2.2699   23.0350 C.ar    1  UNL1        0.0027
      4 C           4.8941   -3.2608   22.3427 C.ar    1  UNL1        0.0283
      5 C           6.1936   -3.6700   22.9704 C.ar    1  UNL1        0.2196
      6 F           7.0817   -4.6609   22.2781 F       1  UNL1       -0.1835
      7 N           6.6049   -3.0881   24.2903 N.ar    1  UNL1       -0.2035
      8 N           6.1281   -1.5153   26.3025 N.pl3   1  UNL1       -0.3132
      9 H           6.7106   -0.7221   26.3307 H       1  UNL1        0.1485
     10 C           5.6521   -2.1420   27.5795 C.3     1  UNL1        0.1349
     11 C           2.4592   -0.1217   30.0235 C.ar    1  UNL1        0.1850
     12 C           2.1479   -0.6106   28.6401 C.ar    1  UNL1        0.1376
     13 N           3.2122   -1.2840   27.8254 N.ar    1  UNL1       -0.2431
     14 C           4.5878   -1.4685   28.3942 C.ar    1  UNL1        0.0813
     15 C           4.8992   -0.9796   29.7777 C.ar    1  UNL1        0.0492
     16 C           3.8348   -0.3062   30.5924 C.ar    1  UNL1        0.1766
     17 F           4.1461    0.1827   31.9758 F       1  UNL1       -0.2009
     18 C           1.4896    2.0203   31.1290 C.3     1  UNL1        0.2527
     19 O           1.3949    0.5517   30.8382 O.3     1  UNL1       -0.4676
     20 C           4.4827   -3.8427   21.0227 C.3     1  UNL1        0.0582
     21 C           4.5091   -2.9923   19.7873 C.ar    1  UNL1        0.0044
     22 C           5.5035   -3.0927   18.6689 C.ar    1  UNL1        0.0966
     23 N           5.1546   -2.0547   17.6439 N.ar    1  UNL1       -0.2273
     24 C           3.9445   -1.3127   18.1288 C.ar    1  UNL1        0.1402
     25 N           3.1545   -0.1843   17.5352 N.ar    1  UNL1       -0.3377
     26 C           1.9654    0.3647   18.2664 C.ar    1  UNL1        0.0691
     27 C           1.5664   -0.2148   19.5912 C.ar    1  UNL1       -0.0047
     28 C           0.3772    0.3342   20.3224 C.3     1  UNL1        0.0326
     29 C           2.3565   -1.3433   20.1848 C.ar    1  UNL1       -0.0001
     30 C           3.5456   -1.8922   19.4536 C.ar    1  UNL1        0.0315
     31 H           3.4163    0.1961   16.6658 H       1  UNL1        0.1674
@<TRIPOS>BOND
     1    18    19    1
     2    19    11    1
     3    11    12   ar
     4    12    13   ar
     5    13    14   ar
     6    14    10    1
     7    10     8    1
     8     8     1    1
     9     1     2   ar
    10     2     3   ar
    11     3     4   ar
    12     4    20    1
    13    20    21    1
    14    21    22   ar
    15    22    23   ar
    16    23    24   ar
    17    24    25   ar
    18    25    26   ar
    19    26    27   ar
    20    27    28    1
    21    27    29   ar
    22    29    30   ar
    23     4     5   ar
    24     5     6    1
    25     5     7   ar
    26    14    15   ar
    27    15    16   ar
    28    16    17    1
    29    16    11   ar
    30     7     1   ar
    31    30    21   ar
    32    30    24    1
    33     8     9    1
    34    25    31    1
