@<TRIPOS>MOLECULE
*****
 32 35 0 0 0
SMALL
GASTEIGER

@<TRIPOS>ATOM
      1 N          -7.9724  -18.9409   20.4245 N.am    1  UNL1       -0.2863
      2 C          -6.6895  -18.6029   21.1243 C.2     1  UNL1        0.3047
      3 O          -6.7177  -17.8355   22.4129 O.2     1  UNL1       -0.2525
      4 N          -5.3784  -19.0322   20.5357 N.am    1  UNL1       -0.2683
      5 H          -7.9539  -19.4445   19.5788 H       1  UNL1        0.1512
      6 H          -5.3598  -19.5359   19.6900 H       1  UNL1        0.1564
      7 C         -11.4563  -17.0939   20.8731 C.3     1  UNL1        0.1351
      8 C         -10.1451  -17.5232   20.2844 C.3     1  UNL1        0.0642
      9 C          -9.2836  -18.5115   21.0131 C.3     1  UNL1        0.1020
     10 C          -9.7332  -19.0705   22.3305 C.ar    1  UNL1        0.0319
     11 C          -8.8716  -20.0587   23.0592 C.ar    1  UNL1        0.0005
     12 C          -9.3212  -20.6176   24.3766 C.ar    1  UNL1        0.0022
     13 C         -10.6324  -20.1882   24.9652 C.ar    1  UNL1        0.0328
     14 C         -11.4940  -19.2000   24.2365 C.ar    1  UNL1        0.1735
     15 F         -12.8051  -18.7706   24.8252 F       1  UNL1       -0.2010
     16 C         -11.0443  -18.6411   22.9192 C.ar    1  UNL1        0.1629
     17 O         -11.9059  -17.6528   22.1904 O.3     1  UNL1       -0.4805
     18 C         -13.1436  -15.7673   22.3371 C.3     1  UNL1        0.0037
     19 C         -12.7697  -16.3849   21.0222 C.3     1  UNL1        0.0401
     20 C         -11.4628  -16.2887   19.6075 C.3     1  UNL1        0.0401
     21 C         -10.5626  -15.0965   19.4724 C.3     1  UNL1        0.0037
     22 C          -4.0954  -18.6942   21.2356 C.ar    1  UNL1        0.0516
     23 C          -4.0202  -18.7511   22.7326 C.ar    1  UNL1        0.0147
     24 C          -2.7373  -18.4131   23.4325 C.ar    1  UNL1        0.0013
     25 C          -1.5296  -18.0181   22.6353 C.ar    1  UNL1        0.0016
     26 C          -1.6048  -17.9612   21.1383 C.ar    1  UNL1        0.0204
     27 C          -0.3971  -17.5662   20.3412 C.ar    1  UNL1        0.0984
     28 N          -0.4723  -17.5093   18.8442 N.ar    1  UNL1       -0.2481
     29 C          -1.7552  -17.8473   18.1442 C.ar    1  UNL1        0.0594
     30 C          -1.8304  -17.7904   16.6472 C.3     1  UNL1        0.0521
     31 C          -2.9629  -18.2423   18.9414 C.ar    1  UNL1        0.0160
     32 C          -2.8877  -18.2992   20.4385 C.ar    1  UNL1        0.0162
@<TRIPOS>BOND
     1    18    19    1
     2    19     7    1
     3     7    20    1
     4    20    21    1
     5     7     8    1
     6     8     9    1
     7     9     1    1
     8     1     2   am
     9     2     3    2
    10     2     4   am
    11     4    22    1
    12    22    23   ar
    13    23    24   ar
    14    24    25   ar
    15    25    26   ar
    16    26    27   ar
    17    27    28   ar
    18    28    29   ar
    19    29    30    1
    20    29    31   ar
    21    31    32   ar
    22     9    10    1
    23    10    11   ar
    24    11    12   ar
    25    12    13   ar
    26    13    14   ar
    27    14    15    1
    28    14    16   ar
    29    16    17    1
    30    17     7    1
    31    32    22   ar
    32    16    10   ar
    33    32    26   ar
    34     1     5    1
    35     4     6    1
@<TRIPOS>MOLECULE
*****
 32 35 0 0 0
SMALL
GASTEIGER

@<TRIPOS>ATOM
      1 N           7.7311   -3.3675   24.2033 N.am    1  UNL1       -0.2863
      2 C           6.7977   -3.3540   23.0293 C.2     1  UNL1        0.3047
      3 O           5.7316   -4.4021   22.9066 O.2     1  UNL1       -0.2525
      4 N           6.9303   -2.2924   21.9778 N.am    1  UNL1       -0.2683
      5 H           8.4308   -2.6796   24.2839 H       1  UNL1        0.1512
      6 H           7.6300   -1.6045   22.0583 H       1  UNL1        0.1564
      7 C           7.7208   -6.9271   25.9580 C.3     1  UNL1        0.1351
      8 C           7.8535   -5.8655   24.9066 C.3     1  UNL1        0.0642
      9 C           7.5985   -4.4290   25.2548 C.3     1  UNL1        0.1020
     10 C           7.2108   -4.0540   26.6545 C.ar    1  UNL1        0.0319
     11 C           6.9559   -2.6174   27.0027 C.ar    1  UNL1        0.0005
     12 C           6.5683   -2.2425   28.4024 C.ar    1  UNL1        0.0022
     13 C           6.4356   -3.3040   29.4538 C.ar    1  UNL1        0.0328
     14 C           6.6906   -4.7405   29.1056 C.ar    1  UNL1        0.1735
     15 F           6.5580   -5.8021   30.1570 F       1  UNL1       -0.2010
     16 C           7.0782   -5.1155   27.7059 C.ar    1  UNL1        0.1629
     17 O           7.3332   -6.5521   27.3577 O.3     1  UNL1       -0.4805
     18 C           8.6032   -8.5488   27.7861 C.3     1  UNL1        0.0037
     19 C           7.7231   -8.2823   26.6008 C.3     1  UNL1        0.0401
     20 C           8.1092   -7.7727   24.7816 C.3     1  UNL1        0.0401
     21 C           9.4827   -7.6506   24.1910 C.3     1  UNL1        0.0037
     22 C           5.9968   -2.2790   20.8037 C.ar    1  UNL1        0.0516
     23 C           6.4265   -2.8773   19.4971 C.ar    1  UNL1        0.0147
     24 C           5.4930   -2.8639   18.3230 C.ar    1  UNL1        0.0013
     25 C           4.1299   -2.2520   18.4556 C.ar    1  UNL1        0.0016
     26 C           3.7002   -1.6537   19.7622 C.ar    1  UNL1        0.0204
     27 C           2.3371   -1.0419   19.8948 C.ar    1  UNL1        0.0984
     28 N           1.9074   -0.4435   21.2015 N.ar    1  UNL1       -0.2481
     29 C           2.8409   -0.4570   22.3756 C.ar    1  UNL1        0.0594
     30 C           2.4113    0.1414   23.6822 C.3     1  UNL1        0.0521
     31 C           4.2041   -1.0688   22.2430 C.ar    1  UNL1        0.0160
     32 C           4.6337   -1.6672   20.9363 C.ar    1  UNL1        0.0162
@<TRIPOS>BOND
     1    18    19    1
     2    19     7    1
     3     7    20    1
     4    20    21    1
     5     7     8    1
     6     8     9    1
     7     9     1    1
     8     1     2   am
     9     2     3    2
    10     2     4   am
    11     4    22    1
    12    22    23   ar
    13    23    24   ar
    14    24    25   ar
    15    25    26   ar
    16    26    27   ar
    17    27    28   ar
    18    28    29   ar
    19    29    30    1
    20    29    31   ar
    21    31    32   ar
    22     9    10    1
    23    10    11   ar
    24    11    12   ar
    25    12    13   ar
    26    13    14   ar
    27    14    15    1
    28    14    16   ar
    29    16    17    1
    30    17     7    1
    31    32    22   ar
    32    16    10   ar
    33    32    26   ar
    34     1     5    1
    35     4     6    1
@<TRIPOS>MOLECULE
*****
 32 35 0 0 0
SMALL
GASTEIGER

@<TRIPOS>ATOM
      1 N           1.6877    2.1326   21.1990 N.am    1  UNL1       -0.2863
      2 C           0.1928    2.1846   21.0871 C.2     1  UNL1        0.3047
      3 O          -0.5774    0.9435   20.7458 O.2     1  UNL1       -0.2525
      4 N          -0.5319    3.4778   21.3163 N.am    1  UNL1       -0.2683
      5 H           2.1932    2.9471   21.4230 H       1  UNL1        0.1512
      6 H          -0.0263    4.2924   21.5403 H       1  UNL1        0.1564
      7 C           3.3857   -0.9365   19.3422 C.3     1  UNL1        0.1351
      8 C           2.6610    0.3567   19.5715 C.3     1  UNL1        0.0642
      9 C           2.4124    0.8394   20.9697 C.3     1  UNL1        0.1020
     10 C           2.8885    0.0289   22.1388 C.ar    1  UNL1        0.0319
     11 C           2.6398    0.5116   23.5370 C.ar    1  UNL1        0.0005
     12 C           3.1159   -0.2988   24.7060 C.ar    1  UNL1        0.0022
     13 C           3.8406   -1.5920   24.4767 C.ar    1  UNL1        0.0328
     14 C           4.0892   -2.0747   23.0784 C.ar    1  UNL1        0.1735
     15 F           4.8139   -3.3678   22.8491 F       1  UNL1       -0.2010
     16 C           3.6132   -1.2642   21.9095 C.ar    1  UNL1        0.1629
     17 O           3.8618   -1.7469   20.5111 O.3     1  UNL1       -0.4805
     18 C           3.7714   -3.4924   19.0803 C.3     1  UNL1        0.0037
     19 C           4.0218   -2.0869   18.6198 C.3     1  UNL1        0.0401
     20 C           3.1306   -0.5255   17.9223 C.3     1  UNL1        0.0401
     21 C           4.2548   -0.5209   16.9293 C.3     1  UNL1        0.0037
     22 C          -2.0268    3.5298   21.2044 C.ar    1  UNL1        0.0516
     23 C          -2.6777    3.5439   19.8531 C.ar    1  UNL1        0.0147
     24 C          -4.1726    3.5959   19.7411 C.ar    1  UNL1        0.0013
     25 C          -5.0166    3.6339   20.9806 C.ar    1  UNL1        0.0016
     26 C          -4.3657    3.6198   22.3319 C.ar    1  UNL1        0.0204
     27 C          -5.2098    3.6577   23.5713 C.ar    1  UNL1        0.0984
     28 N          -4.5589    3.6436   24.9227 N.ar    1  UNL1       -0.2481
     29 C          -3.0640    3.5916   25.0346 C.ar    1  UNL1        0.0594
     30 C          -2.4131    3.5775   26.3859 C.3     1  UNL1        0.0521
     31 C          -2.2199    3.5537   23.7952 C.ar    1  UNL1        0.0160
     32 C          -2.8709    3.5678   22.4438 C.ar    1  UNL1        0.0162
@<TRIPOS>BOND
     1    18    19    1
     2    19     7    1
     3     7    20    1
     4    20    21    1
     5     7     8    1
     6     8     9    1
     7     9     1    1
     8     1     2   am
     9     2     3    2
    10     2     4   am
    11     4    22    1
    12    22    23   ar
    13    23    24   ar
    14    24    25   ar
    15    25    26   ar
    16    26    27   ar
    17    27    28   ar
    18    28    29   ar
    19    29    30    1
    20    29    31   ar
    21    31    32   ar
    22     9    10    1
    23    10    11   ar
    24    11    12   ar
    25    12    13   ar
    26    13    14   ar
    27    14    15    1
    28    14    16   ar
    29    16    17    1
    30    17     7    1
    31    32    22   ar
    32    16    10   ar
    33    32    26   ar
    34     1     5    1
    35     4     6    1
@<TRIPOS>MOLECULE
*****
 32 35 0 0 0
SMALL
GASTEIGER

@<TRIPOS>ATOM
      1 N           6.7917   -2.6318   24.9164 N.am    1  UNL1       -0.2863
      2 C           5.9326   -2.6435   23.6868 C.2     1  UNL1        0.3047
      3 O           5.3705   -3.9374   23.1769 O.2     1  UNL1       -0.2525
      4 N           5.6356   -1.3614   22.9672 N.am    1  UNL1       -0.2683
      5 H           7.1606   -1.7826   25.2511 H       1  UNL1        0.1512
      6 H           6.0045   -0.5121   23.3019 H       1  UNL1        0.1564
      7 C           7.8155   -6.4077   25.5829 C.3     1  UNL1        0.1351
      8 C           7.5184   -5.1256   24.8633 C.3     1  UNL1        0.0642
      9 C           7.0887   -3.9139   25.6360 C.3     1  UNL1        0.1020
     10 C           6.9560   -3.9844   27.1286 C.ar    1  UNL1        0.0319
     11 C           6.5262   -2.7728   27.9013 C.ar    1  UNL1        0.0005
     12 C           6.3935   -2.8433   29.3937 C.ar    1  UNL1        0.0022
     13 C           6.6906   -4.1254   30.1134 C.ar    1  UNL1        0.0328
     14 C           7.1203   -5.3370   29.3406 C.ar    1  UNL1        0.1735
     15 F           7.4173   -6.6192   30.0603 F       1  UNL1       -0.2010
     16 C           7.2530   -5.2665   27.8482 C.ar    1  UNL1        0.1629
     17 O           7.6827   -6.4782   27.0753 O.3     1  UNL1       -0.4805
     18 C           7.9253   -8.4894   27.1337 C.3     1  UNL1        0.0037
     19 C           8.2056   -7.8378   25.8119 C.3     1  UNL1        0.0401
     20 C           8.0837   -6.8339   24.1700 C.3     1  UNL1        0.0401
     21 C           9.3449   -7.5744   23.8365 C.3     1  UNL1        0.0037
     22 C           4.7765   -1.3731   21.7376 C.ar    1  UNL1        0.0516
     23 C           3.3054   -1.1016   21.8478 C.ar    1  UNL1        0.0147
     24 C           2.4464   -1.1134   20.6183 C.ar    1  UNL1        0.0013
     25 C           3.0585   -1.3966   19.2784 C.ar    1  UNL1        0.0016
     26 C           4.5295   -1.6681   19.1682 C.ar    1  UNL1        0.0204
     27 C           5.1416   -1.9514   17.8283 C.ar    1  UNL1        0.0984
     28 N           6.6126   -2.2229   17.7181 N.ar    1  UNL1       -0.2481
     29 C           7.4717   -2.2112   18.9477 C.ar    1  UNL1        0.0594
     30 C           8.9428   -2.4827   18.8374 C.3     1  UNL1        0.0521
     31 C           6.8597   -1.9279   20.2875 C.ar    1  UNL1        0.0160
     32 C           5.3885   -1.6564   20.3977 C.ar    1  UNL1        0.0162
@<TRIPOS>BOND
     1    18    19    1
     2    19     7    1
     3     7    20    1
     4    20    21    1
     5     7     8    1
     6     8     9    1
     7     9     1    1
     8     1     2   am
     9     2     3    2
    10     2     4   am
    11     4    22    1
    12    22    23   ar
    13    23    24   ar
    14    24    25   ar
    15    25    26   ar
    16    26    27   ar
    17    27    28   ar
    18    28    29   ar
    19    29    30    1
    20    29    31   ar
    21    31    32   ar
    22     9    10    1
    23    10    11   ar
    24    11    12   ar
    25    12    13   ar
    26    13    14   ar
    27    14    15    1
    28    14    16   ar
    29    16    17    1
    30    17     7    1
    31    32    22   ar
    32    16    10   ar
    33    32    26   ar
    34     1     5    1
    35     4     6    1
@<TRIPOS>MOLECULE
*****
 32 35 0 0 0
SMALL
GASTEIGER

@<TRIPOS>ATOM
      1 N           1.4472    2.3109   21.2023 N.am    1  UNL1       -0.2863
      2 C          -0.0431    2.3101   21.0321 C.2     1  UNL1        0.3047
      3 O          -0.7505    1.0524   20.6222 O.2     1  UNL1       -0.2525
      4 N          -0.8261    3.5669   21.2717 N.am    1  UNL1       -0.2683
      5 H           1.9114    3.1364   21.4713 H       1  UNL1        0.1512
      6 H          -0.3619    4.3923   21.5407 H       1  UNL1        0.1564
      7 C           3.2981   -0.6529   19.3209 C.3     1  UNL1        0.1351
      8 C           2.5151    0.6039   19.5605 C.3     1  UNL1        0.0642
      9 C           2.2302    1.0542   20.9627 C.3     1  UNL1        0.1020
     10 C           2.7282    0.2477   22.1253 C.ar    1  UNL1        0.0319
     11 C           2.4433    0.6980   23.5274 C.ar    1  UNL1        0.0005
     12 C           2.9414   -0.1085   24.6899 C.ar    1  UNL1        0.0022
     13 C           3.7243   -1.3653   24.4503 C.ar    1  UNL1        0.0328
     14 C           4.0093   -1.8156   23.0481 C.ar    1  UNL1        0.1735
     15 F           4.7922   -3.0724   22.8085 F       1  UNL1       -0.2010
     16 C           3.5112   -1.0091   21.8856 C.ar    1  UNL1        0.1629
     17 O           3.7961   -1.4594   20.4834 O.3     1  UNL1       -0.4805
     18 C           3.8133   -3.1837   19.0384 C.3     1  UNL1        0.0037
     19 C           3.9917   -1.7636   18.5893 C.3     1  UNL1        0.0401
     20 C           3.0409   -0.2321   17.9043 C.3     1  UNL1        0.0401
     21 C           3.9669   -0.6750   16.8105 C.3     1  UNL1        0.0037
     22 C          -2.3164    3.5660   21.1015 C.ar    1  UNL1        0.0516
     23 C          -3.2076    3.3954   22.2959 C.ar    1  UNL1        0.0147
     24 C          -4.6979    3.3945   22.1256 C.ar    1  UNL1        0.0013
     25 C          -5.2970    3.5642   20.7609 C.ar    1  UNL1        0.0016
     26 C          -4.4058    3.7348   19.5665 C.ar    1  UNL1        0.0204
     27 C          -5.0049    3.9045   18.2019 C.ar    1  UNL1        0.0984
     28 N          -4.1137    4.0751   17.0075 N.ar    1  UNL1       -0.2481
     29 C          -2.6233    4.0760   17.1777 C.ar    1  UNL1        0.0594
     30 C          -1.7321    4.2466   15.9833 C.3     1  UNL1        0.0521
     31 C          -2.0242    3.9063   18.5424 C.ar    1  UNL1        0.0160
     32 C          -2.9155    3.7357   19.7368 C.ar    1  UNL1        0.0162
@<TRIPOS>BOND
     1    18    19    1
     2    19     7    1
     3     7    20    1
     4    20    21    1
     5     7     8    1
     6     8     9    1
     7     9     1    1
     8     1     2   am
     9     2     3    2
    10     2     4   am
    11     4    22    1
    12    22    23   ar
    13    23    24   ar
    14    24    25   ar
    15    25    26   ar
    16    26    27   ar
    17    27    28   ar
    18    28    29   ar
    19    29    30    1
    20    29    31   ar
    21    31    32   ar
    22     9    10    1
    23    10    11   ar
    24    11    12   ar
    25    12    13   ar
    26    13    14   ar
    27    14    15    1
    28    14    16   ar
    29    16    17    1
    30    17     7    1
    31    32    22   ar
    32    16    10   ar
    33    32    26   ar
    34     1     5    1
    35     4     6    1
@<TRIPOS>MOLECULE
*****
 32 35 0 0 0
SMALL
GASTEIGER

@<TRIPOS>ATOM
      1 N          -0.3385    3.5829   21.0976 N.am    1  UNL1       -0.2863
      2 C           0.3053    2.3255   20.5933 C.2     1  UNL1        0.3047
      3 O          -0.5149    1.0824   20.4147 O.2     1  UNL1       -0.2525
      4 N           1.7695    2.3112   20.2675 N.am    1  UNL1       -0.2683
      5 H           0.1999    4.3988   21.2148 H       1  UNL1        0.1512
      6 H           2.3079    3.1271   20.3847 H       1  UNL1        0.1564
      7 C          -4.2808    3.6293   20.6441 C.3     1  UNL1        0.1351
      8 C          -2.8167    3.6149   20.3183 C.3     1  UNL1        0.0642
      9 C          -1.8026    3.5972   21.4234 C.3     1  UNL1        0.1020
     10 C          -2.2526    3.5939   22.8544 C.ar    1  UNL1        0.0319
     11 C          -1.2385    3.5762   23.9594 C.ar    1  UNL1        0.0005
     12 C          -1.6886    3.5729   25.3903 C.ar    1  UNL1        0.0022
     13 C          -3.1527    3.5872   25.7161 C.ar    1  UNL1        0.0328
     14 C          -4.1668    3.6049   24.6110 C.ar    1  UNL1        0.1735
     15 F          -5.6309    3.6192   24.9368 F       1  UNL1       -0.2010
     16 C          -3.7168    3.6082   23.1801 C.ar    1  UNL1        0.1629
     17 O          -4.7309    3.6259   22.0750 O.3     1  UNL1       -0.4805
     18 C          -6.5714    4.8253   20.9145 C.3     1  UNL1        0.0037
     19 C          -5.7680    3.6469   20.4495 C.3     1  UNL1        0.0401
     20 C          -4.3473    3.6387   19.1456 C.3     1  UNL1        0.0401
     21 C          -3.7760    4.7931   18.3768 C.3     1  UNL1        0.0037
     22 C           2.4133    1.0537   19.7631 C.ar    1  UNL1        0.0516
     23 C           2.5565    0.8241   18.2878 C.ar    1  UNL1        0.0147
     24 C           3.2003   -0.4333   17.7835 C.ar    1  UNL1        0.0013
     25 C           3.7009   -1.4611   18.7546 C.ar    1  UNL1        0.0016
     26 C           3.5577   -1.2315   20.2299 C.ar    1  UNL1        0.0204
     27 C           4.0583   -2.2594   21.2010 C.ar    1  UNL1        0.0984
     28 N           3.9151   -2.0298   22.6763 N.ar    1  UNL1       -0.2481
     29 C           3.2713   -0.7723   23.1807 C.ar    1  UNL1        0.0594
     30 C           3.1280   -0.5427   24.6561 C.3     1  UNL1        0.0521
     31 C           2.7707    0.2555   22.2096 C.ar    1  UNL1        0.0160
     32 C           2.9139    0.0259   20.7342 C.ar    1  UNL1        0.0162
@<TRIPOS>BOND
     1    18    19    1
     2    19     7    1
     3     7    20    1
     4    20    21    1
     5     7     8    1
     6     8     9    1
     7     9     1    1
     8     1     2   am
     9     2     3    2
    10     2     4   am
    11     4    22    1
    12    22    23   ar
    13    23    24   ar
    14    24    25   ar
    15    25    26   ar
    16    26    27   ar
    17    27    28   ar
    18    28    29   ar
    19    29    30    1
    20    29    31   ar
    21    31    32   ar
    22     9    10    1
    23    10    11   ar
    24    11    12   ar
    25    12    13   ar
    26    13    14   ar
    27    14    15    1
    28    14    16   ar
    29    16    17    1
    30    17     7    1
    31    32    22   ar
    32    16    10   ar
    33    32    26   ar
    34     1     5    1
    35     4     6    1
@<TRIPOS>MOLECULE
*****
 32 35 0 0 0
SMALL
GASTEIGER

@<TRIPOS>ATOM
      1 N           2.1267    1.9685   21.4097 N.am    1  UNL1       -0.2863
      2 C           0.6328    2.0467   21.2993 C.2     1  UNL1        0.3047
      3 O          -0.1782    0.7894   21.1918 O.2     1  UNL1       -0.2525
      4 N          -0.0501    3.3822   21.2964 N.am    1  UNL1       -0.2683
      5 H           2.6590    2.7937   21.4803 H       1  UNL1        0.1512
      6 H           0.4821    4.2074   21.3670 H       1  UNL1        0.1564
      7 C           3.7814   -1.3944   22.7146 C.3     1  UNL1        0.1351
      8 C           3.0985   -0.0589   22.7118 C.3     1  UNL1        0.0642
      9 C           2.8096    0.6330   21.4126 C.3     1  UNL1        0.1020
     10 C           3.2037   -0.0107   20.1162 C.ar    1  UNL1        0.0319
     11 C           2.9149    0.6812   18.8171 C.ar    1  UNL1        0.0005
     12 C           3.3090    0.0375   17.5208 C.ar    1  UNL1        0.0022
     13 C           3.9919   -1.2980   17.5237 C.ar    1  UNL1        0.0328
     14 C           4.2808   -1.9898   18.8229 C.ar    1  UNL1        0.1735
     15 F           4.9637   -3.3254   18.8258 F       1  UNL1       -0.2010
     16 C           3.8867   -1.3462   20.1191 C.ar    1  UNL1        0.1629
     17 O           4.1755   -2.0380   21.4184 O.3     1  UNL1       -0.4805
     18 C           4.6727   -3.7979   22.2920 C.3     1  UNL1        0.0037
     19 C           4.4024   -2.6588   23.2299 C.3     1  UNL1        0.0401
     20 C           3.6030   -1.1898   24.1899 C.3     1  UNL1        0.0401
     21 C           4.8031   -1.0287   25.0753 C.3     1  UNL1        0.0037
     22 C          -1.5440    3.4604   21.1860 C.ar    1  UNL1        0.0516
     23 C          -2.1948    3.5077   19.8354 C.ar    1  UNL1        0.0147
     24 C          -3.6887    3.5859   19.7251 C.ar    1  UNL1        0.0013
     25 C          -4.5318    3.6167   20.9654 C.ar    1  UNL1        0.0016
     26 C          -3.8810    3.5695   22.3160 C.ar    1  UNL1        0.0204
     27 C          -4.7240    3.6004   23.5562 C.ar    1  UNL1        0.0984
     28 N          -4.0732    3.5531   24.9069 N.ar    1  UNL1       -0.2481
     29 C          -2.5793    3.4749   25.0172 C.ar    1  UNL1        0.0594
     30 C          -1.9285    3.4276   26.3679 C.3     1  UNL1        0.0521
     31 C          -1.7362    3.4440   23.7770 C.ar    1  UNL1        0.0160
     32 C          -2.3871    3.4913   22.4263 C.ar    1  UNL1        0.0162
@<TRIPOS>BOND
     1    18    19    1
     2    19     7    1
     3     7    20    1
     4    20    21    1
     5     7     8    1
     6     8     9    1
     7     9     1    1
     8     1     2   am
     9     2     3    2
    10     2     4   am
    11     4    22    1
    12    22    23   ar
    13    23    24   ar
    14    24    25   ar
    15    25    26   ar
    16    26    27   ar
    17    27    28   ar
    18    28    29   ar
    19    29    30    1
    20    29    31   ar
    21    31    32   ar
    22     9    10    1
    23    10    11   ar
    24    11    12   ar
    25    12    13   ar
    26    13    14   ar
    27    14    15    1
    28    14    16   ar
    29    16    17    1
    30    17     7    1
    31    32    22   ar
    32    16    10   ar
    33    32    26   ar
    34     1     5    1
    35     4     6    1
@<TRIPOS>MOLECULE
*****
 32 35 0 0 0
SMALL
GASTEIGER

@<TRIPOS>ATOM
      1 N           2.0843    1.9934   21.2616 N.am    1  UNL1       -0.2863
      2 C           0.5866    2.0632   21.2182 C.2     1  UNL1        0.3047
      3 O          -0.2237    0.8009   21.2252 O.2     1  UNL1       -0.2525
      4 N          -0.1010    3.3954   21.1677 N.am    1  UNL1       -0.2683
      5 H           2.6160    2.8219   21.2569 H       1  UNL1        0.1512
      6 H           0.4308    4.2240   21.1631 H       1  UNL1        0.1564
      7 C           3.7257   -1.3280   22.6844 C.3     1  UNL1        0.1351
      8 C           3.0382    0.0042   22.6339 C.3     1  UNL1        0.0642
      9 C           2.7718    0.6612   21.3120 C.3     1  UNL1        0.1020
     10 C           3.1929   -0.0141   20.0405 C.ar    1  UNL1        0.0319
     11 C           2.9265    0.6428   18.7186 C.ar    1  UNL1        0.0005
     12 C           3.3476   -0.0325   17.4472 C.ar    1  UNL1        0.0022
     13 C           4.0352   -1.3647   17.4976 C.ar    1  UNL1        0.0328
     14 C           4.3016   -2.0216   18.8195 C.ar    1  UNL1        0.1735
     15 F           4.9891   -3.3538   18.8700 F       1  UNL1       -0.2010
     16 C           3.8805   -1.3463   20.0909 C.ar    1  UNL1        0.1629
     17 O           4.1468   -2.0032   21.4129 O.3     1  UNL1       -0.4805
     18 C           4.5805   -3.7589   22.3527 C.3     1  UNL1        0.0037
     19 C           4.3412   -2.5762   23.2438 C.3     1  UNL1        0.0401
     20 C           3.5184   -1.0862   24.1501 C.3     1  UNL1        0.0401
     21 C           4.6706   -1.2151   25.1019 C.3     1  UNL1        0.0037
     22 C          -1.5988    3.4653   21.1243 C.ar    1  UNL1        0.0516
     23 C          -2.3934    3.3181   22.3880 C.ar    1  UNL1        0.0147
     24 C          -3.8911    3.3880   22.3445 C.ar    1  UNL1        0.0013
     25 C          -4.5942    3.6049   21.0374 C.ar    1  UNL1        0.0016
     26 C          -3.7996    3.7521   19.7738 C.ar    1  UNL1        0.0204
     27 C          -4.5027    3.9691   18.4666 C.ar    1  UNL1        0.0984
     28 N          -3.7081    4.1162   17.2030 N.ar    1  UNL1       -0.2481
     29 C          -2.2103    4.0464   17.2464 C.ar    1  UNL1        0.0594
     30 C          -1.4157    4.1935   15.9827 C.3     1  UNL1        0.0521
     31 C          -1.5072    3.8294   18.5535 C.ar    1  UNL1        0.0160
     32 C          -2.3019    3.6822   19.8172 C.ar    1  UNL1        0.0162
@<TRIPOS>BOND
     1    18    19    1
     2    19     7    1
     3     7    20    1
     4    20    21    1
     5     7     8    1
     6     8     9    1
     7     9     1    1
     8     1     2   am
     9     2     3    2
    10     2     4   am
    11     4    22    1
    12    22    23   ar
    13    23    24   ar
    14    24    25   ar
    15    25    26   ar
    16    26    27   ar
    17    27    28   ar
    18    28    29   ar
    19    29    30    1
    20    29    31   ar
    21    31    32   ar
    22     9    10    1
    23    10    11   ar
    24    11    12   ar
    25    12    13   ar
    26    13    14   ar
    27    14    15    1
    28    14    16   ar
    29    16    17    1
    30    17     7    1
    31    32    22   ar
    32    16    10   ar
    33    32    26   ar
    34     1     5    1
    35     4     6    1
@<TRIPOS>MOLECULE
*****
 32 35 0 0 0
SMALL
GASTEIGER

@<TRIPOS>ATOM
      1 N           6.5963   -1.7328   22.8366 N.am    1  UNL1       -0.2863
      2 C           6.8103   -3.1733   23.1957 C.2     1  UNL1        0.3047
      3 O           5.8671   -4.2218   22.6845 O.2     1  UNL1       -0.2525
      4 N           7.9673   -3.5655   24.0660 N.am    1  UNL1       -0.2683
      5 H           7.2153   -1.0447   23.1721 H       1  UNL1        0.1512
      6 H           8.5864   -2.8774   24.4015 H       1  UNL1        0.1564
      7 C           3.0236   -0.4177   21.7158 C.3     1  UNL1        0.1351
      8 C           4.1807   -0.8099   22.5861 C.3     1  UNL1        0.0642
      9 C           5.4393   -1.3406   21.9663 C.3     1  UNL1        0.1020
     10 C           5.5408   -1.4793   20.4761 C.ar    1  UNL1        0.0319
     11 C           6.7994   -2.0100   19.8563 C.ar    1  UNL1        0.0005
     12 C           6.9009   -2.1487   18.3662 C.ar    1  UNL1        0.0022
     13 C           5.7439   -1.7565   17.4959 C.ar    1  UNL1        0.0328
     14 C           4.4853   -1.2257   18.1157 C.ar    1  UNL1        0.1735
     15 F           3.3282   -0.8336   17.2454 F       1  UNL1       -0.2010
     16 C           4.3838   -1.0871   19.6058 C.ar    1  UNL1        0.1629
     17 O           3.1251   -0.5563   20.2257 O.3     1  UNL1       -0.4805
     18 C           0.9605   -0.5262   20.1403 C.3     1  UNL1        0.0037
     19 C           1.6678    0.0830   21.3146 C.3     1  UNL1        0.0401
     20 C           2.4512   -0.1052   23.0666 C.3     1  UNL1        0.0401
     21 C           3.1482   -0.5841   24.3055 C.3     1  UNL1        0.0037
     22 C           8.1813   -5.0061   24.4251 C.ar    1  UNL1        0.0516
     23 C           8.5976   -5.9881   23.3704 C.ar    1  UNL1        0.0147
     24 C           8.8115   -7.4287   23.7295 C.ar    1  UNL1        0.0013
     25 C           8.6091   -7.8872   25.1433 C.ar    1  UNL1        0.0016
     26 C           8.1928   -6.9053   26.1979 C.ar    1  UNL1        0.0204
     27 C           7.9903   -7.3638   27.6117 C.ar    1  UNL1        0.0984
     28 N           7.5740   -6.3818   28.6664 N.ar    1  UNL1       -0.2481
     29 C           7.3601   -4.9412   28.3073 C.ar    1  UNL1        0.0594
     30 C           6.9437   -3.9592   29.3619 C.3     1  UNL1        0.0521
     31 C           7.5625   -4.4826   26.8935 C.ar    1  UNL1        0.0160
     32 C           7.9789   -5.4647   25.8388 C.ar    1  UNL1        0.0162
@<TRIPOS>BOND
     1    18    19    1
     2    19     7    1
     3     7    20    1
     4    20    21    1
     5     7     8    1
     6     8     9    1
     7     9     1    1
     8     1     2   am
     9     2     3    2
    10     2     4   am
    11     4    22    1
    12    22    23   ar
    13    23    24   ar
    14    24    25   ar
    15    25    26   ar
    16    26    27   ar
    17    27    28   ar
    18    28    29   ar
    19    29    30    1
    20    29    31   ar
    21    31    32   ar
    22     9    10    1
    23    10    11   ar
    24    11    12   ar
    25    12    13   ar
    26    13    14   ar
    27    14    15    1
    28    14    16   ar
    29    16    17    1
    30    17     7    1
    31    32    22   ar
    32    16    10   ar
    33    32    26   ar
    34     1     5    1
    35     4     6    1
