@<TRIPOS>MOLECULE
*****
 33 37 0 0 0
SMALL
GASTEIGER

@<TRIPOS>ATOM
      1 C          -9.1706  -16.0622   23.3620 C.3     1  UNL1        0.0920
      2 C          -9.4847  -15.9443   24.8241 C.3     1  UNL1        0.0429
      3 C          -8.2034  -15.6659   25.5525 C.3     1  UNL1        0.0985
      4 N          -7.0974  -15.6116   24.5407 N.am    1  UNL1       -0.2443
      5 C          -5.6480  -15.3572   24.8316 C.2     1  UNL1        0.4048
      6 O          -5.1953  -15.1278   26.2432 O.2     1  UNL1       -0.2262
      7 C          -7.6950  -15.8566   23.1869 C.3     1  UNL1        0.1162
      8 N         -10.1585  -16.3374   22.2674 N.pl3   1  UNL1       -0.3180
      9 H         -10.9733  -15.7901   22.1906 H       1  UNL1        0.1482
     10 C          -9.3981  -19.6642   19.3342 C.ar    1  UNL1        0.0877
     11 C         -10.7536  -19.0264   19.4099 C.ar    1  UNL1        0.0147
     12 C         -11.0071  -17.9174   20.3877 C.ar    1  UNL1        0.0348
     13 C          -9.9050  -17.4463   21.2896 C.ar    1  UNL1        0.1286
     14 N          -8.5495  -18.0841   21.2138 N.ar    1  UNL1       -0.2287
     15 C          -8.2960  -19.1930   20.2362 C.ar    1  UNL1        0.1105
     16 N          -8.8910  -21.8821   17.3787 N.1     1  UNL1       -0.1908
     17 C          -9.1445  -20.7731   18.3564 C.1     1  UNL1        0.1020
     18 O          -4.6513  -15.3320   23.7110 O.3     1  UNL1       -0.4383
     19 C          -4.1615  -16.6180   23.1138 C.3     1  UNL1        0.1702
     20 C          -2.9532  -16.6199   22.2250 C.3     1  UNL1        0.0407
     21 C          -3.6716  -17.9038   22.5167 C.3     1  UNL1        0.0036
     22 C          -3.1818  -19.1897   21.9196 C.3     1  UNL1        0.0007
     23 C          -4.3901  -19.1878   22.8085 C.3     1  UNL1        0.0036
     24 C          -4.8799  -17.9020   23.4056 C.3     1  UNL1        0.0407
     25 C          -2.3675  -18.6478   21.4206 C.3     1  UNL1        0.0122
     26 C          -1.2551  -17.9076   20.7390 C.3     1  UNL1        0.0688
     27 C          -1.9735  -19.1916   21.0307 C.3     1  UNL1        0.0086
     28 C          -1.7449  -16.6217   21.3361 C.3     1  UNL1        0.0122
     29 C          -0.0468  -17.9095   19.8501 C.2     1  UNL1        0.2184
     30 N          -0.2081  -17.7744   18.3650 N.am    1  UNL1       -0.3288
     31 O           1.3227  -18.0465   20.4464 O.2     1  UNL1       -0.2754
     32 H          -1.1070  -17.6844   17.9736 H       1  UNL1        0.1449
     33 H           0.5850  -17.7756   17.7816 H       1  UNL1        0.1449
@<TRIPOS>BOND
     1    16    17    3
     2    17    10    1
     3    10    11   ar
     4    11    12   ar
     5    12    13   ar
     6    13     8    1
     7     1     8    1
     8     1     2    1
     9     2     3    1
    10     3     4    1
    11     4     5   am
    12     5     6    2
    13     5    18    1
    14    19    18    1
    15    19    20    1
    16    20    21    1
    17    21    22    1
    18    22    23    1
    19    23    24    1
    20    24    25    1
    21    25    26    1
    22    26    29    1
    23    29    30   am
    24    29    31    2
    25    26    27    1
    26    26    28    1
    27     4     7    1
    28    13    14   ar
    29    14    15   ar
    30    15    10   ar
    31     7     1    1
    32    24    19    1
    33    28    20    1
    34    27    22    1
    35     8     9    1
    36    30    32    1
    37    30    33    1
@<TRIPOS>MOLECULE
*****
 33 37 0 0 0
SMALL
GASTEIGER

@<TRIPOS>ATOM
      1 C         -16.1765   -2.3658   19.4512 C.3     1  UNL1        0.0920
      2 C         -16.9266   -1.3643   18.6239 C.3     1  UNL1        0.0429
      3 C         -15.9336   -0.3905   18.0620 C.3     1  UNL1        0.0985
      4 N         -14.5699   -0.7900   18.5421 N.am    1  UNL1       -0.2443
      5 C         -13.2820   -0.0915   18.2201 C.2     1  UNL1        0.4048
      6 O         -13.2877    1.1251   17.3426 O.2     1  UNL1       -0.2262
      7 C         -14.7199   -2.0108   19.4007 C.3     1  UNL1        0.1162
      8 N         -16.7774   -3.5195   20.1980 N.pl3   1  UNL1       -0.3180
      9 H         -17.3914   -3.3533   20.9495 H       1  UNL1        0.1482
     10 C         -15.7740   -7.7404   19.0037 C.ar    1  UNL1        0.0877
     11 C         -17.2039   -7.3415   19.2182 C.ar    1  UNL1        0.0147
     12 C         -17.5384   -5.9345   19.6164 C.ar    1  UNL1        0.0348
     13 C         -16.4429   -4.9265   19.7999 C.ar    1  UNL1        0.1286
     14 N         -15.0129   -5.3254   19.5853 N.ar    1  UNL1       -0.2287
     15 C         -14.6784   -6.7323   19.1872 C.ar    1  UNL1        0.1105
     16 N         -15.1049  -10.5544   18.2074 N.1     1  UNL1       -0.1908
     17 C         -15.4394   -9.1474   18.6055 C.1     1  UNL1        0.1020
     18 O         -11.9886   -0.6094   18.7757 O.3     1  UNL1       -0.4383
     19 C         -11.1982   -1.6289   18.0101 C.3     1  UNL1        0.1702
     20 C         -11.1243   -3.0442   18.5016 C.3     1  UNL1        0.0407
     21 C         -10.4080   -2.6484   17.2445 C.3     1  UNL1        0.0036
     22 C          -9.6177   -3.6679   16.4790 C.3     1  UNL1        0.0007
     23 C          -9.6917   -2.2526   15.9875 C.3     1  UNL1        0.0036
     24 C         -10.4820   -1.2332   16.7530 C.3     1  UNL1        0.0407
     25 C          -9.8891   -4.4333   17.2181 C.3     1  UNL1        0.0122
     26 C         -10.2600   -5.4789   18.2276 C.3     1  UNL1        0.0688
     27 C          -9.5437   -5.0831   16.9706 C.3     1  UNL1        0.0086
     28 C         -11.0503   -4.4594   18.9931 C.3     1  UNL1        0.0122
     29 C         -10.1860   -6.8941   18.7192 C.2     1  UNL1        0.2184
     30 N         -11.3689   -7.8038   18.5669 N.am    1  UNL1       -0.3288
     31 O          -8.9291   -7.3997   19.3630 O.2     1  UNL1       -0.2754
     32 H         -12.1939   -7.4720   18.1444 H       1  UNL1        0.1449
     33 H         -11.3203   -8.7326   18.8895 H       1  UNL1        0.1449
@<TRIPOS>BOND
     1    16    17    3
     2    17    10    1
     3    10    11   ar
     4    11    12   ar
     5    12    13   ar
     6    13     8    1
     7     1     8    1
     8     1     2    1
     9     2     3    1
    10     3     4    1
    11     4     5   am
    12     5     6    2
    13     5    18    1
    14    19    18    1
    15    19    20    1
    16    20    21    1
    17    21    22    1
    18    22    23    1
    19    23    24    1
    20    24    25    1
    21    25    26    1
    22    26    29    1
    23    29    30   am
    24    29    31    2
    25    26    27    1
    26    26    28    1
    27     4     7    1
    28    13    14   ar
    29    14    15   ar
    30    15    10   ar
    31     7     1    1
    32    24    19    1
    33    28    20    1
    34    27    22    1
    35     8     9    1
    36    30    32    1
    37    30    33    1
@<TRIPOS>MOLECULE
*****
 33 37 0 0 0
SMALL
GASTEIGER

@<TRIPOS>ATOM
      1 C         -18.6656   -3.8335   19.5199 C.3     1  UNL1        0.0920
      2 C         -19.1023   -2.5445   18.8890 C.3     1  UNL1        0.0429
      3 C         -17.9351   -1.6025   18.9037 C.3     1  UNL1        0.0985
      4 N         -16.7771   -2.3092   19.5436 N.am    1  UNL1       -0.2443
      5 C         -15.4079   -1.7374   19.7640 C.2     1  UNL1        0.4048
      6 O         -15.1015   -0.3353   19.3279 O.2     1  UNL1       -0.2262
      7 C         -17.2284   -3.6880   19.9244 C.3     1  UNL1        0.1162
      8 N         -19.5165   -5.0536   19.7123 N.pl3   1  UNL1       -0.3180
      9 H         -20.4675   -4.9583   19.9485 H       1  UNL1        0.1482
     10 C         -17.7227   -9.1500   19.2104 C.ar    1  UNL1        0.0877
     11 C         -18.7728   -8.9140   20.2551 C.ar    1  UNL1        0.0147
     12 C         -19.3708   -7.5485   20.4225 C.ar    1  UNL1        0.0348
     13 C         -18.9186   -6.4191   19.5450 C.ar    1  UNL1        0.1286
     14 N         -17.8685   -6.6551   18.5002 N.ar    1  UNL1       -0.2287
     15 C         -17.2705   -8.0205   18.3329 C.ar    1  UNL1        0.1105
     16 N         -16.5268  -11.8809   18.8757 N.1     1  UNL1       -0.1908
     17 C         -17.1248  -10.5154   19.0430 C.1     1  UNL1        0.1020
     18 O         -14.3451   -2.5678   20.4205 O.3     1  UNL1       -0.4383
     19 C         -13.0579   -2.8437   19.7015 C.3     1  UNL1        0.1702
     20 C         -12.6217   -4.2586   19.4608 C.3     1  UNL1        0.0407
     21 C         -11.7708   -3.1197   18.9824 C.3     1  UNL1        0.0036
     22 C         -10.4836   -3.3957   18.2634 C.3     1  UNL1        0.0007
     23 C         -10.9199   -1.9808   18.5040 C.3     1  UNL1        0.0036
     24 C         -12.2070   -1.7048   19.2231 C.3     1  UNL1        0.0407
     25 C         -10.6588   -4.4750   18.3639 C.3     1  UNL1        0.0122
     26 C         -10.8983   -5.9494   18.5012 C.3     1  UNL1        0.0688
     27 C         -10.0474   -4.8105   18.0228 C.3     1  UNL1        0.0086
     28 C         -12.1854   -5.6734   19.2202 C.3     1  UNL1        0.0122
     29 C         -10.4620   -7.3642   18.2605 C.2     1  UNL1        0.2184
     30 N          -9.5466   -8.0430   19.2358 N.am    1  UNL1       -0.3288
     31 O         -10.9412   -8.1003   17.0446 O.2     1  UNL1       -0.2754
     32 H          -9.2320   -7.5598   20.0339 H       1  UNL1        0.1449
     33 H          -9.2602   -8.9716   19.0779 H       1  UNL1        0.1449
@<TRIPOS>BOND
     1    16    17    3
     2    17    10    1
     3    10    11   ar
     4    11    12   ar
     5    12    13   ar
     6    13     8    1
     7     1     8    1
     8     1     2    1
     9     2     3    1
    10     3     4    1
    11     4     5   am
    12     5     6    2
    13     5    18    1
    14    19    18    1
    15    19    20    1
    16    20    21    1
    17    21    22    1
    18    22    23    1
    19    23    24    1
    20    24    25    1
    21    25    26    1
    22    26    29    1
    23    29    30   am
    24    29    31    2
    25    26    27    1
    26    26    28    1
    27     4     7    1
    28    13    14   ar
    29    14    15   ar
    30    15    10   ar
    31     7     1    1
    32    24    19    1
    33    28    20    1
    34    27    22    1
    35     8     9    1
    36    30    32    1
    37    30    33    1
@<TRIPOS>MOLECULE
*****
 33 37 0 0 0
SMALL
GASTEIGER

@<TRIPOS>ATOM
      1 C         -15.2565   -8.0082   18.9821 C.3     1  UNL1        0.0920
      2 C         -16.4151   -8.7997   19.5126 C.3     1  UNL1        0.0429
      3 C         -17.5572   -7.8542   19.7396 C.3     1  UNL1        0.0985
      4 N         -17.1046   -6.4784   19.3494 N.am    1  UNL1       -0.2443
      5 C         -17.9291   -5.2270   19.4157 C.2     1  UNL1        0.4048
      6 O         -19.3447   -5.2868   19.9083 O.2     1  UNL1       -0.2262
      7 C         -15.6827   -6.5735   18.8812 C.3     1  UNL1        0.1162
      8 N         -13.9086   -8.5553   18.6166 N.pl3   1  UNL1       -0.3180
      9 H         -13.7382   -9.5233   18.6738 H       1  UNL1        0.1482
     10 C         -10.6434   -5.7723   17.2589 C.ar    1  UNL1        0.0877
     11 C         -11.2229   -5.6336   18.6354 C.ar    1  UNL1        0.0147
     12 C         -12.3113   -6.5613   19.0881 C.ar    1  UNL1        0.0348
     13 C         -12.8202   -7.6277   18.1640 C.ar    1  UNL1        0.1286
     14 N         -12.2407   -7.7664   16.7874 N.ar    1  UNL1       -0.2287
     15 C         -11.1524   -6.8388   16.3348 C.ar    1  UNL1        0.1105
     16 N          -8.4666   -3.9170   16.3536 N.1     1  UNL1       -0.1908
     17 C          -9.5550   -4.8447   16.8062 C.1     1  UNL1        0.1020
     18 O         -17.3381   -3.9160   18.9894 O.3     1  UNL1       -0.4383
     19 C         -15.9504   -3.5433   19.4203 C.3     1  UNL1        0.1702
     20 C         -15.0327   -2.8383   18.4659 C.3     1  UNL1        0.0407
     21 C         -14.5628   -3.1707   19.8511 C.3     1  UNL1        0.0036
     22 C         -13.1752   -2.7980   20.2819 C.3     1  UNL1        0.0007
     23 C         -14.0930   -3.5030   21.2362 C.3     1  UNL1        0.0036
     24 C         -15.4806   -3.8757   20.8054 C.3     1  UNL1        0.0407
     25 C         -12.9859   -2.3596   19.2931 C.3     1  UNL1        0.0122
     26 C         -12.7274   -1.7607   17.9424 C.3     1  UNL1        0.0688
     27 C         -12.2575   -2.0930   19.3276 C.3     1  UNL1        0.0086
     28 C         -14.1150   -2.1333   17.5116 C.3     1  UNL1        0.0122
     29 C         -11.8097   -1.0557   16.9881 C.2     1  UNL1        0.2184
     30 N         -10.3516   -1.4058   16.9528 N.am    1  UNL1       -0.3288
     31 O         -12.3501   -0.0005   16.0691 O.2     1  UNL1       -0.2754
     32 H          -9.9969   -2.0983   17.5560 H       1  UNL1        0.1449
     33 H          -9.7493   -0.9430   16.3264 H       1  UNL1        0.1449
@<TRIPOS>BOND
     1    16    17    3
     2    17    10    1
     3    10    11   ar
     4    11    12   ar
     5    12    13   ar
     6    13     8    1
     7     1     8    1
     8     1     2    1
     9     2     3    1
    10     3     4    1
    11     4     5   am
    12     5     6    2
    13     5    18    1
    14    19    18    1
    15    19    20    1
    16    20    21    1
    17    21    22    1
    18    22    23    1
    19    23    24    1
    20    24    25    1
    21    25    26    1
    22    26    29    1
    23    29    30   am
    24    29    31    2
    25    26    27    1
    26    26    28    1
    27     4     7    1
    28    13    14   ar
    29    14    15   ar
    30    15    10   ar
    31     7     1    1
    32    24    19    1
    33    28    20    1
    34    27    22    1
    35     8     9    1
    36    30    32    1
    37    30    33    1
@<TRIPOS>MOLECULE
*****
 33 37 0 0 0
SMALL
GASTEIGER

@<TRIPOS>ATOM
      1 C         -17.3801   -3.8117   19.7740 C.3     1  UNL1        0.0920
      2 C         -18.8059   -4.1130   19.4182 C.3     1  UNL1        0.0429
      3 C         -18.9119   -5.5818   19.1330 C.3     1  UNL1        0.0985
      4 N         -17.5518   -6.1883   19.3125 N.am    1  UNL1       -0.2443
      5 C         -17.2001   -7.6348   19.1281 C.2     1  UNL1        0.4048
      6 O         -18.2589   -8.6190   18.7279 O.2     1  UNL1       -0.2262
      7 C         -16.6050   -5.0943   19.7086 C.3     1  UNL1        0.1162
      8 N         -16.8266   -2.4644   20.1322 N.pl3   1  UNL1       -0.3180
      9 H         -17.3144   -1.8827   20.7592 H       1  UNL1        0.1482
     10 C         -12.9370   -1.0812   18.3415 C.ar    1  UNL1        0.0877
     11 C         -12.9426   -2.1710   19.3721 C.ar    1  UNL1        0.0147
     12 C         -14.2392   -2.6321   19.9691 C.ar    1  UNL1        0.0348
     13 C         -15.5301   -2.0033   19.5353 C.ar    1  UNL1        0.1286
     14 N         -15.5245   -0.9135   18.5046 N.ar    1  UNL1       -0.2287
     15 C         -14.2280   -0.4524   17.9077 C.ar    1  UNL1        0.1105
     16 N         -10.3438   -0.1590   17.1476 N.1     1  UNL1       -0.1908
     17 C         -11.6404   -0.6201   17.7446 C.1     1  UNL1        0.1020
     18 O         -15.7896   -8.0971   19.3441 O.3     1  UNL1       -0.4383
     19 C         -14.7045   -7.6584   18.4058 C.3     1  UNL1        0.1702
     20 C         -13.5047   -6.9301   18.9348 C.3     1  UNL1        0.0407
     21 C         -13.6196   -7.2198   17.4675 C.3     1  UNL1        0.0036
     22 C         -12.5346   -6.7811   16.5293 C.3     1  UNL1        0.0007
     23 C         -13.7344   -7.5095   16.0003 C.3     1  UNL1        0.0036
     24 C         -14.8194   -7.9481   16.9385 C.3     1  UNL1        0.0407
     25 C         -11.9789   -6.3508   17.3730 C.3     1  UNL1        0.0122
     26 C         -11.2199   -5.7630   18.5255 C.3     1  UNL1        0.0688
     27 C         -11.3347   -6.0527   17.0583 C.3     1  UNL1        0.0086
     28 C         -12.3048   -6.2017   19.4638 C.3     1  UNL1        0.0122
     29 C         -10.0200   -5.0347   19.0545 C.2     1  UNL1        0.2184
     30 N          -9.9388   -3.5412   18.9407 N.am    1  UNL1       -0.3288
     31 O          -8.9014   -5.7997   19.6974 O.2     1  UNL1       -0.2754
     32 H         -10.6730   -3.0391   18.5187 H       1  UNL1        0.1449
     33 H          -9.1513   -3.0632   19.2879 H       1  UNL1        0.1449
@<TRIPOS>BOND
     1    16    17    3
     2    17    10    1
     3    10    11   ar
     4    11    12   ar
     5    12    13   ar
     6    13     8    1
     7     1     8    1
     8     1     2    1
     9     2     3    1
    10     3     4    1
    11     4     5   am
    12     5     6    2
    13     5    18    1
    14    19    18    1
    15    19    20    1
    16    20    21    1
    17    21    22    1
    18    22    23    1
    19    23    24    1
    20    24    25    1
    21    25    26    1
    22    26    29    1
    23    29    30   am
    24    29    31    2
    25    26    27    1
    26    26    28    1
    27     4     7    1
    28    13    14   ar
    29    14    15   ar
    30    15    10   ar
    31     7     1    1
    32    24    19    1
    33    28    20    1
    34    27    22    1
    35     8     9    1
    36    30    32    1
    37    30    33    1
@<TRIPOS>MOLECULE
*****
 33 37 0 0 0
SMALL
GASTEIGER

@<TRIPOS>ATOM
      1 C           5.8035   -2.4444   18.5975 C.3     1  UNL1        0.0920
      2 C           7.0961   -1.7258   18.3466 C.3     1  UNL1        0.0429
      3 C           8.1104   -2.2415   19.3240 C.3     1  UNL1        0.0985
      4 N           7.4447   -3.2788   20.1789 N.am    1  UNL1       -0.2443
      5 C           8.0912   -4.0545   21.2882 C.2     1  UNL1        0.4048
      6 O           9.5338   -3.8201   21.6255 O.2     1  UNL1       -0.2262
      7 C           6.0190   -3.4042   19.7299 C.3     1  UNL1        0.1162
      8 N           4.5208   -2.2392   17.8475 N.pl3   1  UNL1       -0.3180
      9 H           4.3895   -2.6668   16.9705 H       1  UNL1        0.1482
     10 C           1.2726    0.3309   19.6064 C.ar    1  UNL1        0.0877
     11 C           1.9607    0.7527   18.3421 C.ar    1  UNL1        0.0147
     12 C           3.0435   -0.1040   17.7557 C.ar    1  UNL1        0.0348
     13 C           3.4380   -1.3825   18.4339 C.ar    1  UNL1        0.1286
     14 N           2.7499   -1.8043   19.6982 N.ar    1  UNL1       -0.2287
     15 C           1.6672   -0.9477   20.2845 C.ar    1  UNL1        0.1105
     16 N          -0.8930    2.0442   20.7790 N.1     1  UNL1       -0.1908
     17 C           0.1898    1.1875   20.1927 C.1     1  UNL1        0.1020
     18 O           7.2951   -5.0647   22.0600 O.3     1  UNL1       -0.4383
     19 C           7.2435   -4.9936   23.5574 C.3     1  UNL1        0.1702
     20 C           7.6072   -6.1953   24.3782 C.3     1  UNL1        0.0407
     21 C           7.1920   -4.9227   25.0549 C.3     1  UNL1        0.0036
     22 C           7.1406   -4.8517   26.5523 C.3     1  UNL1        0.0007
     23 C           6.7769   -3.6500   25.7315 C.3     1  UNL1        0.0036
     24 C           6.8284   -3.7210   24.2341 C.3     1  UNL1        0.0407
     25 C           7.4698   -5.8975   26.6132 C.3     1  UNL1        0.0122
     26 C           7.9194   -7.3261   26.6964 C.3     1  UNL1        0.0688
     27 C           7.5043   -6.0534   27.3730 C.3     1  UNL1        0.0086
     28 C           7.9709   -7.3970   25.1990 C.3     1  UNL1        0.0122
     29 C           8.2831   -8.5278   27.5171 C.2     1  UNL1        0.2184
     30 N           7.4010   -9.7409   27.5026 N.am    1  UNL1       -0.3288
     31 O           9.5289   -8.5164   28.3525 O.2     1  UNL1       -0.2754
     32 H           6.5834   -9.7484   26.9543 H       1  UNL1        0.1449
     33 H           7.6398  -10.5296   28.0413 H       1  UNL1        0.1449
@<TRIPOS>BOND
     1    16    17    3
     2    17    10    1
     3    10    11   ar
     4    11    12   ar
     5    12    13   ar
     6    13     8    1
     7     1     8    1
     8     1     2    1
     9     2     3    1
    10     3     4    1
    11     4     5   am
    12     5     6    2
    13     5    18    1
    14    19    18    1
    15    19    20    1
    16    20    21    1
    17    21    22    1
    18    22    23    1
    19    23    24    1
    20    24    25    1
    21    25    26    1
    22    26    29    1
    23    29    30   am
    24    29    31    2
    25    26    27    1
    26    26    28    1
    27     4     7    1
    28    13    14   ar
    29    14    15   ar
    30    15    10   ar
    31     7     1    1
    32    24    19    1
    33    28    20    1
    34    27    22    1
    35     8     9    1
    36    30    32    1
    37    30    33    1
@<TRIPOS>MOLECULE
*****
 33 37 0 0 0
SMALL
GASTEIGER

@<TRIPOS>ATOM
      1 C           5.9147   -2.7287   18.9951 C.3     1  UNL1        0.0920
      2 C           7.2126   -2.0180   18.7492 C.3     1  UNL1        0.0429
      3 C           8.1918   -2.4669   19.7930 C.3     1  UNL1        0.0985
      4 N           7.4991   -3.4549   20.6841 N.am    1  UNL1       -0.2443
      5 C           8.1071   -4.1578   21.8616 C.2     1  UNL1        0.4048
      6 O           9.5350   -3.8938   22.2374 O.2     1  UNL1       -0.2262
      7 C           6.0918   -3.6168   20.1910 C.3     1  UNL1        0.1162
      8 N           4.6600   -2.5778   18.1870 N.pl3   1  UNL1       -0.3180
      9 H           4.5439   -3.0944   17.3570 H       1  UNL1        0.1482
     10 C           1.4264    0.2361   19.5566 C.ar    1  UNL1        0.0877
     11 C           2.1468    0.4926   18.2662 C.ar    1  UNL1        0.0147
     12 C           3.2247   -0.4453   17.8096 C.ar    1  UNL1        0.0348
     13 C           3.5821   -1.6398   18.6436 C.ar    1  UNL1        0.1286
     14 N           2.8617   -1.8964   19.9340 N.ar    1  UNL1       -0.2287
     15 C           1.7839   -0.9585   20.3906 C.ar    1  UNL1        0.1105
     16 N          -0.7293    2.1120   20.4698 N.1     1  UNL1       -0.1908
     17 C           0.3486    1.1740   20.0132 C.1     1  UNL1        0.1020
     18 O           7.2870   -5.1247   22.6632 O.3     1  UNL1       -0.4383
     19 C           7.9519   -6.0212   23.6654 C.3     1  UNL1        0.1702
     20 C           7.6973   -5.8267   25.1308 C.3     1  UNL1        0.0407
     21 C           8.6166   -6.9177   24.6676 C.3     1  UNL1        0.0036
     22 C           9.2814   -7.8141   25.6698 C.3     1  UNL1        0.0007
     23 C           9.5359   -8.0087   24.2044 C.3     1  UNL1        0.0036
     24 C           8.8711   -7.1122   23.2022 C.3     1  UNL1        0.0407
     25 C           8.7853   -7.2708   26.4849 C.3     1  UNL1        0.0122
     26 C           8.1076   -6.5286   27.5984 C.3     1  UNL1        0.0688
     27 C           9.0269   -7.6196   27.1352 C.3     1  UNL1        0.0086
     28 C           7.4428   -5.6322   26.5962 C.3     1  UNL1        0.0122
     29 C           7.8531   -6.3341   29.0638 C.2     1  UNL1        0.2184
     30 N           6.5360   -5.7886   29.5303 N.am    1  UNL1       -0.3288
     31 O           8.9156   -6.6851   30.0626 O.2     1  UNL1       -0.2754
     32 H           5.8386   -5.5582   28.8747 H       1  UNL1        0.1449
     33 H           6.3690   -5.6609   30.4921 H       1  UNL1        0.1449
@<TRIPOS>BOND
     1    16    17    3
     2    17    10    1
     3    10    11   ar
     4    11    12   ar
     5    12    13   ar
     6    13     8    1
     7     1     8    1
     8     1     2    1
     9     2     3    1
    10     3     4    1
    11     4     5   am
    12     5     6    2
    13     5    18    1
    14    19    18    1
    15    19    20    1
    16    20    21    1
    17    21    22    1
    18    22    23    1
    19    23    24    1
    20    24    25    1
    21    25    26    1
    22    26    29    1
    23    29    30   am
    24    29    31    2
    25    26    27    1
    26    26    28    1
    27     4     7    1
    28    13    14   ar
    29    14    15   ar
    30    15    10   ar
    31     7     1    1
    32    24    19    1
    33    28    20    1
    34    27    22    1
    35     8     9    1
    36    30    32    1
    37    30    33    1
@<TRIPOS>MOLECULE
*****
 33 37 0 0 0
SMALL
GASTEIGER

@<TRIPOS>ATOM
      1 C          -3.0204    3.4340   20.5769 C.3     1  UNL1        0.0920
      2 C          -2.6198    4.8557   20.8386 C.3     1  UNL1        0.0429
      3 C          -1.2769    5.0821   20.2098 C.3     1  UNL1        0.0985
      4 N          -0.8475    3.8004   19.5595 N.am    1  UNL1       -0.2443
      5 C           0.4344    3.5766   18.8133 C.2     1  UNL1        0.4048
      6 O           1.4222    4.6959   18.6669 O.2     1  UNL1       -0.2262
      7 C          -1.9250    2.7818   19.7863 C.3     1  UNL1        0.1162
      8 N          -4.2928    2.7794   21.0267 N.pl3   1  UNL1       -0.3180
      9 H          -4.5337    1.8869   20.6882 H       1  UNL1        0.1482
     10 C          -7.0094    4.8954   23.9237 C.ar    1  UNL1        0.0877
     11 C          -5.8343    4.1136   24.4316 C.ar    1  UNL1        0.0147
     12 C          -4.9288    3.4083   23.4660 C.ar    1  UNL1        0.0348
     13 C          -5.1984    3.4848   21.9924 C.ar    1  UNL1        0.1286
     14 N          -6.3735    4.2665   21.4844 N.ar    1  UNL1       -0.2287
     15 C          -7.2790    4.9718   22.4500 C.ar    1  UNL1        0.1105
     16 N          -8.8206    6.3061   25.8550 N.1     1  UNL1       -0.1908
     17 C          -7.9150    5.6007   24.8894 C.1     1  UNL1        0.1020
     18 O           0.7284    2.2335   18.2136 O.3     1  UNL1       -0.4383
     19 C           1.3493    1.1568   19.0534 C.3     1  UNL1        0.1702
     20 C           2.3837    0.2463   18.4608 C.3     1  UNL1        0.0407
     21 C           1.9702    0.0801   19.8931 C.3     1  UNL1        0.0036
     22 C           2.5912   -0.9966   20.7328 C.3     1  UNL1        0.0007
     23 C           1.5567   -0.0861   21.3253 C.3     1  UNL1        0.0036
     24 C           0.9358    0.9905   20.4856 C.3     1  UNL1        0.0407
     25 C           3.2031   -1.3112   19.8770 C.3     1  UNL1        0.0122
     26 C           4.0390   -1.7408   18.7080 C.3     1  UNL1        0.0688
     27 C           3.6256   -1.9070   20.1402 C.3     1  UNL1        0.0086
     28 C           3.4181   -0.6641   17.8683 C.3     1  UNL1        0.0122
     29 C           5.0734   -2.6512   18.1155 C.2     1  UNL1        0.2184
     30 N           4.8968   -4.1387   18.1940 N.am    1  UNL1       -0.3288
     31 O           6.2845   -2.0742   17.4444 O.2     1  UNL1       -0.2754
     32 H           4.1019   -4.5174   18.6345 H       1  UNL1        0.1449
     33 H           5.5757   -4.7362   17.8051 H       1  UNL1        0.1449
@<TRIPOS>BOND
     1    16    17    3
     2    17    10    1
     3    10    11   ar
     4    11    12   ar
     5    12    13   ar
     6    13     8    1
     7     1     8    1
     8     1     2    1
     9     2     3    1
    10     3     4    1
    11     4     5   am
    12     5     6    2
    13     5    18    1
    14    19    18    1
    15    19    20    1
    16    20    21    1
    17    21    22    1
    18    22    23    1
    19    23    24    1
    20    24    25    1
    21    25    26    1
    22    26    29    1
    23    29    30   am
    24    29    31    2
    25    26    27    1
    26    26    28    1
    27     4     7    1
    28    13    14   ar
    29    14    15   ar
    30    15    10   ar
    31     7     1    1
    32    24    19    1
    33    28    20    1
    34    27    22    1
    35     8     9    1
    36    30    32    1
    37    30    33    1
@<TRIPOS>MOLECULE
*****
 33 37 0 0 0
SMALL
GASTEIGER

@<TRIPOS>ATOM
      1 C           8.4239   -3.4610   20.5343 C.3     1  UNL1        0.0920
      2 C           8.9897   -2.7951   19.3150 C.3     1  UNL1        0.0429
      3 C           7.8434   -2.3225   18.4709 C.3     1  UNL1        0.0985
      4 N           6.5691   -2.6963   19.1684 N.am    1  UNL1       -0.2443
      5 C           5.1799   -2.4157   18.6769 C.2     1  UNL1        0.4048
      6 O           4.9754   -1.6988   17.3753 O.2     1  UNL1       -0.2262
      7 C           6.9278   -3.3999   20.4436 C.3     1  UNL1        0.1162
      8 N           9.2152   -4.0794   21.6485 N.pl3   1  UNL1       -0.3180
      9 H          10.1653   -4.2996   21.5142 H       1  UNL1        0.1482
     10 C           7.2462   -4.9279   25.6048 C.ar    1  UNL1        0.0877
     11 C           7.3599   -3.5160   25.1112 C.ar    1  UNL1        0.0147
     12 C           8.0163   -3.2332   23.7924 C.ar    1  UNL1        0.0348
     13 C           8.5588   -4.3623   22.9673 C.ar    1  UNL1        0.1286
     14 N           8.4451   -5.7741   23.4609 N.ar    1  UNL1       -0.2287
     15 C           7.7888   -6.0570   24.7796 C.ar    1  UNL1        0.1105
     16 N           5.9335   -5.4936   28.2425 N.1     1  UNL1       -0.1908
     17 C           6.5899   -5.2108   26.9236 C.1     1  UNL1        0.1020
     18 O           3.9954   -2.8521   19.4870 O.3     1  UNL1       -0.4383
     19 C           3.4078   -1.9296   20.5136 C.3     1  UNL1        0.1702
     20 C           3.9032   -1.9693   21.9288 C.3     1  UNL1        0.0407
     21 C           2.8203   -1.0071   21.5401 C.3     1  UNL1        0.0036
     22 C           2.2327   -0.0846   22.5666 C.3     1  UNL1        0.0007
     23 C           1.7373   -0.0448   21.1513 C.3     1  UNL1        0.0036
     24 C           2.3248   -0.9673   20.1248 C.3     1  UNL1        0.0407
     25 C           2.8998   -0.5080   23.3291 C.3     1  UNL1        0.0122
     26 C           3.8111   -1.0866   24.3706 C.3     1  UNL1        0.0688
     27 C           2.7282   -0.1243   23.9818 C.3     1  UNL1        0.0086
     28 C           4.3987   -2.0091   23.3441 C.3     1  UNL1        0.0122
     29 C           4.3066   -1.1263   25.7858 C.2     1  UNL1        0.2184
     30 N           3.5849   -1.9507   26.8102 N.am    1  UNL1       -0.3288
     31 O           5.5237   -0.3417   26.1767 O.2     1  UNL1       -0.2754
     32 H           2.7860   -2.4657   26.5537 H       1  UNL1        0.1449
     33 H           3.9100   -1.9768   27.7391 H       1  UNL1        0.1449
@<TRIPOS>BOND
     1    16    17    3
     2    17    10    1
     3    10    11   ar
     4    11    12   ar
     5    12    13   ar
     6    13     8    1
     7     1     8    1
     8     1     2    1
     9     2     3    1
    10     3     4    1
    11     4     5   am
    12     5     6    2
    13     5    18    1
    14    19    18    1
    15    19    20    1
    16    20    21    1
    17    21    22    1
    18    22    23    1
    19    23    24    1
    20    24    25    1
    21    25    26    1
    22    26    29    1
    23    29    30   am
    24    29    31    2
    25    26    27    1
    26    26    28    1
    27     4     7    1
    28    13    14   ar
    29    14    15   ar
    30    15    10   ar
    31     7     1    1
    32    24    19    1
    33    28    20    1
    34    27    22    1
    35     8     9    1
    36    30    32    1
    37    30    33    1
