@<TRIPOS>MOLECULE
*****
 25 27 0 0 0
SMALL
GASTEIGER

@<TRIPOS>ATOM
      1 C          -7.1000  -15.8528   23.9901 C.ar    1  UNL1        0.1795
      2 C          -8.1359  -16.0447   25.0579 C.ar    1  UNL1        0.0407
      3 C          -7.7766  -15.8306   26.4984 C.ar    1  UNL1        0.0033
      4 C          -6.3815  -15.4246   26.8711 C.ar    1  UNL1        0.0033
      5 C          -5.3457  -15.2327   25.8034 C.ar    1  UNL1        0.0407
      6 C          -5.7049  -15.4468   24.3628 C.ar    1  UNL1        0.1795
      7 O          -7.4592  -16.0669   22.5496 O.3     1  UNL1       -0.4506
      8 C          -8.4559  -18.2671   21.5926 C.ar    1  UNL1        0.0473
      9 C          -9.6468  -19.1052   21.2332 C.ar    1  UNL1        0.0985
     10 N         -11.0320  -18.5813   21.4714 N.ar    1  UNL1       -0.2482
     11 C         -11.2263  -17.2193   22.0689 C.ar    1  UNL1        0.0624
     12 C         -12.6115  -16.6954   22.3071 C.3     1  UNL1        0.0522
     13 C         -10.0354  -16.3812   22.4283 C.ar    1  UNL1        0.0519
     14 C          -8.6502  -16.9051   22.1901 C.ar    1  UNL1        0.1454
     15 C          -7.0707  -18.7910   21.3544 C.3     1  UNL1        0.1003
     16 C          -5.0393  -19.1157   19.7676 C.3     1  UNL1        0.0861
     17 N          -6.3548  -18.4649   20.0773 N.3     1  UNL1       -0.2925
     18 H          -6.9886  -18.7047   19.3149 H       1  UNL1        0.1236
     19 O          -4.6691  -15.2549   23.2950 O.3     1  UNL1       -0.4504
     20 C          -3.8162  -16.4100   22.8612 C.ar    1  UNL1        0.1454
     21 C          -2.6082  -16.1704   22.0048 C.ar    1  UNL1        0.0375
     22 C          -1.7553  -17.3255   21.5710 C.ar    1  UNL1        0.0031
     23 C          -2.1103  -18.7202   21.9936 C.ar    1  UNL1        0.0002
     24 C          -3.3183  -18.9599   22.8500 C.ar    1  UNL1        0.0031
     25 C          -4.1712  -17.8048   23.2838 C.ar    1  UNL1        0.0375
@<TRIPOS>BOND
     1    16    17    1
     2    17    15    1
     3    15     8    1
     4     8     9   ar
     5     9    10   ar
     6    10    11   ar
     7    11    12    1
     8    11    13   ar
     9    13    14   ar
    10    14     7    1
    11     7     1    1
    12     1     2   ar
    13     2     3   ar
    14     3     4   ar
    15     4     5   ar
    16     5     6   ar
    17     6    19    1
    18    19    20    1
    19    20    21   ar
    20    21    22   ar
    21    22    23   ar
    22    23    24   ar
    23    24    25   ar
    24    14     8   ar
    25     6     1   ar
    26    25    20   ar
    27    17    18    1
@<TRIPOS>MOLECULE
*****
 25 27 0 0 0
SMALL
GASTEIGER

@<TRIPOS>ATOM
      1 C          -6.5814  -15.8001   24.6378 C.ar    1  UNL1        0.1795
      2 C          -5.7656  -15.6708   25.8900 C.ar    1  UNL1        0.0407
      3 C          -6.4453  -15.4454   27.2080 C.ar    1  UNL1        0.0033
      4 C          -7.9408  -15.3493   27.2739 C.ar    1  UNL1        0.0033
      5 C          -8.7566  -15.4787   26.0219 C.ar    1  UNL1        0.0407
      6 C          -8.0769  -15.7040   24.7038 C.ar    1  UNL1        0.1795
      7 O          -5.9018  -16.0255   23.3198 O.3     1  UNL1       -0.4506
      8 C          -4.7132  -18.2742   22.7902 C.ar    1  UNL1        0.0473
      9 C          -4.7300  -19.6357   22.1608 C.ar    1  UNL1        0.0985
     10 N          -5.9521  -20.1099   21.4316 N.ar    1  UNL1       -0.2482
     11 C          -7.1574  -19.2226   21.3319 C.ar    1  UNL1        0.0624
     12 C          -8.3795  -19.6968   20.6028 C.3     1  UNL1        0.0522
     13 C          -7.1406  -17.8612   21.9613 C.ar    1  UNL1        0.0519
     14 C          -5.9185  -17.3870   22.6904 C.ar    1  UNL1        0.1454
     15 C          -3.4911  -17.8001   23.5193 C.3     1  UNL1        0.1003
     16 C          -2.1722  -16.3301   21.8311 C.3     1  UNL1        0.0861
     17 N          -2.2313  -17.5066   22.7599 N.3     1  UNL1       -0.2925
     18 H          -1.4946  -17.3723   23.4523 H       1  UNL1        0.1236
     19 O          -8.8927  -15.8334   23.4517 O.3     1  UNL1       -0.4504
     20 C         -10.1678  -16.6232   23.4656 C.ar    1  UNL1        0.1454
     21 C         -11.3761  -16.1097   22.7402 C.ar    1  UNL1        0.0375
     22 C         -12.6512  -16.8996   22.7540 C.ar    1  UNL1        0.0031
     23 C         -12.7180  -18.2030   23.4933 C.ar    1  UNL1        0.0002
     24 C         -11.5097  -18.7166   24.2188 C.ar    1  UNL1        0.0031
     25 C         -10.2346  -17.9267   24.2049 C.ar    1  UNL1        0.0375
@<TRIPOS>BOND
     1    16    17    1
     2    17    15    1
     3    15     8    1
     4     8     9   ar
     5     9    10   ar
     6    10    11   ar
     7    11    12    1
     8    11    13   ar
     9    13    14   ar
    10    14     7    1
    11     7     1    1
    12     1     2   ar
    13     2     3   ar
    14     3     4   ar
    15     4     5   ar
    16     5     6   ar
    17     6    19    1
    18    19    20    1
    19    20    21   ar
    20    21    22   ar
    21    22    23   ar
    22    23    24   ar
    23    24    25   ar
    24    14     8   ar
    25     6     1   ar
    26    25    20   ar
    27    17    18    1
@<TRIPOS>MOLECULE
*****
 25 27 0 0 0
SMALL
GASTEIGER

@<TRIPOS>ATOM
      1 C          -7.4318  -15.5020   24.2666 C.ar    1  UNL1        0.1795
      2 C          -8.4410  -15.7236   25.3542 C.ar    1  UNL1        0.0407
      3 C          -8.0198  -15.6600   26.7924 C.ar    1  UNL1        0.0033
      4 C          -6.5896  -15.3748   27.1432 C.ar    1  UNL1        0.0033
      5 C          -5.5805  -15.1532   26.0557 C.ar    1  UNL1        0.0407
      6 C          -6.0016  -15.2168   24.6174 C.ar    1  UNL1        0.1795
      7 O          -7.8530  -15.5656   22.8284 O.3     1  UNL1       -0.4506
      8 C          -9.4910  -17.0961   21.5152 C.ar    1  UNL1        0.0473
      9 C          -9.8095  -18.4194   20.8848 C.ar    1  UNL1        0.0985
     10 N          -8.8086  -19.5354   20.9372 N.ar    1  UNL1       -0.2482
     11 C          -7.4893  -19.3282   21.6199 C.ar    1  UNL1        0.0624
     12 C          -6.4884  -20.4442   21.6723 C.3     1  UNL1        0.0522
     13 C          -7.1707  -18.0049   22.2503 C.ar    1  UNL1        0.0519
     14 C          -8.1716  -16.8889   22.1980 C.ar    1  UNL1        0.1454
     15 C         -10.4918  -15.9801   21.4628 C.3     1  UNL1        0.1003
     16 C         -12.6286  -16.6798   22.7647 C.3     1  UNL1        0.0861
     17 N         -11.4447  -15.7731   22.6026 N.3     1  UNL1       -0.2925
     18 H         -10.8979  -15.8466   23.4606 H       1  UNL1        0.1236
     19 O          -4.9925  -14.9952   23.5300 O.3     1  UNL1       -0.4504
     20 C          -4.0967  -16.1180   23.0979 C.ar    1  UNL1        0.1454
     21 C          -2.9555  -15.8495   22.1622 C.ar    1  UNL1        0.0375
     22 C          -2.0597  -16.9723   21.7301 C.ar    1  UNL1        0.0031
     23 C          -2.3050  -18.3637   22.2338 C.ar    1  UNL1        0.0002
     24 C          -3.4462  -18.6324   23.1695 C.ar    1  UNL1        0.0031
     25 C          -4.3420  -17.5095   23.6016 C.ar    1  UNL1        0.0375
@<TRIPOS>BOND
     1    16    17    1
     2    17    15    1
     3    15     8    1
     4     8     9   ar
     5     9    10   ar
     6    10    11   ar
     7    11    12    1
     8    11    13   ar
     9    13    14   ar
    10    14     7    1
    11     7     1    1
    12     1     2   ar
    13     2     3   ar
    14     3     4   ar
    15     4     5   ar
    16     5     6   ar
    17     6    19    1
    18    19    20    1
    19    20    21   ar
    20    21    22   ar
    21    22    23   ar
    22    23    24   ar
    23    24    25   ar
    24    14     8   ar
    25     6     1   ar
    26    25    20   ar
    27    17    18    1
@<TRIPOS>MOLECULE
*****
 25 27 0 0 0
SMALL
GASTEIGER

@<TRIPOS>ATOM
      1 C          -7.7234  -15.8096   24.5368 C.ar    1  UNL1        0.1795
      2 C          -8.5457  -15.7527   25.7901 C.ar    1  UNL1        0.0407
      3 C          -7.8838  -15.4881   27.1099 C.ar    1  UNL1        0.0033
      4 C          -6.3998  -15.2803   27.1765 C.ar    1  UNL1        0.0033
      5 C          -5.5776  -15.3372   25.9232 C.ar    1  UNL1        0.0407
      6 C          -6.2394  -15.6019   24.6033 C.ar    1  UNL1        0.1795
      7 O          -8.3852  -16.0742   23.2170 O.3     1  UNL1       -0.4506
      8 C         -10.5245  -17.1413   22.1995 C.ar    1  UNL1        0.0473
      9 C         -11.4399  -18.3191   22.0423 C.ar    1  UNL1        0.0985
     10 N         -11.1316  -19.6077   22.7455 N.ar    1  UNL1       -0.2482
     11 C          -9.9079  -19.7185   23.6059 C.ar    1  UNL1        0.0624
     12 C          -9.5996  -21.0071   24.3091 C.3     1  UNL1        0.0522
     13 C          -8.9925  -18.5407   23.7630 C.ar    1  UNL1        0.0519
     14 C          -9.3007  -17.2521   23.0598 C.ar    1  UNL1        0.1454
     15 C         -10.8327  -15.8527   21.4963 C.3     1  UNL1        0.1003
     16 C         -11.8134  -15.6585   19.0983 C.3     1  UNL1        0.0861
     17 N         -10.6286  -15.7394   20.0146 N.3     1  UNL1       -0.2925
     18 H         -10.0764  -14.8963   19.8570 H       1  UNL1        0.1236
     19 O          -5.4171  -15.6588   23.3501 O.3     1  UNL1       -0.4504
     20 C          -4.6972  -16.9222   22.9821 C.ar    1  UNL1        0.1454
     21 C          -5.4749  -18.1728   22.6973 C.ar    1  UNL1        0.0375
     22 C          -4.7549  -19.4363   22.3294 C.ar    1  UNL1        0.0031
     23 C          -3.2573  -19.4491   22.2462 C.ar    1  UNL1        0.0002
     24 C          -2.4796  -18.1984   22.5310 C.ar    1  UNL1        0.0031
     25 C          -3.1995  -16.9350   22.8990 C.ar    1  UNL1        0.0375
@<TRIPOS>BOND
     1    16    17    1
     2    17    15    1
     3    15     8    1
     4     8     9   ar
     5     9    10   ar
     6    10    11   ar
     7    11    12    1
     8    11    13   ar
     9    13    14   ar
    10    14     7    1
    11     7     1    1
    12     1     2   ar
    13     2     3   ar
    14     3     4   ar
    15     4     5   ar
    16     5     6   ar
    17     6    19    1
    18    19    20    1
    19    20    21   ar
    20    21    22   ar
    21    22    23   ar
    22    23    24   ar
    23    24    25   ar
    24    14     8   ar
    25     6     1   ar
    26    25    20   ar
    27    17    18    1
@<TRIPOS>MOLECULE
*****
 25 27 0 0 0
SMALL
GASTEIGER

@<TRIPOS>ATOM
      1 C          -6.4201  -17.8321   22.0683 C.ar    1  UNL1        0.1795
      2 C          -5.9886  -19.1815   21.5752 C.ar    1  UNL1        0.0407
      3 C          -4.6560  -19.7375   21.9810 C.ar    1  UNL1        0.0033
      4 C          -3.7547  -18.9442   22.8801 C.ar    1  UNL1        0.0033
      5 C          -4.1861  -17.5949   23.3733 C.ar    1  UNL1        0.0407
      6 C          -5.5188  -17.0389   22.9674 C.ar    1  UNL1        0.1795
      7 O          -7.7528  -17.2762   21.6625 O.3     1  UNL1       -0.4506
      8 C         -10.2892  -16.9999   22.1525 C.ar    1  UNL1        0.0473
      9 C         -11.5376  -17.4663   22.8410 C.ar    1  UNL1        0.0985
     10 N         -11.4979  -18.6754   23.7278 N.ar    1  UNL1       -0.2482
     11 C         -10.2100  -19.4181   23.9261 C.ar    1  UNL1        0.0624
     12 C         -10.1703  -20.6273   24.8129 C.3     1  UNL1        0.0522
     13 C          -8.9616  -18.9517   23.2377 C.ar    1  UNL1        0.0519
     14 C          -9.0012  -17.7426   22.3509 C.ar    1  UNL1        0.1454
     15 C         -10.3289  -15.7907   21.2657 C.3     1  UNL1        0.1003
     16 C         -12.0722  -15.7737   19.3395 C.3     1  UNL1        0.0861
     17 N         -10.6574  -15.9389   19.8097 N.3     1  UNL1       -0.2925
     18 H         -10.0983  -15.2476   19.3099 H       1  UNL1        0.1236
     19 O          -5.9502  -15.6896   23.4606 O.3     1  UNL1       -0.4504
     20 C          -6.6519  -15.5625   24.7803 C.ar    1  UNL1        0.1454
     21 C          -8.1492  -15.4884   24.8295 C.ar    1  UNL1        0.0375
     22 C          -8.8509  -15.3613   26.1492 C.ar    1  UNL1        0.0031
     23 C          -8.0552  -15.3083   27.4196 C.ar    1  UNL1        0.0002
     24 C          -6.5578  -15.3824   27.3704 C.ar    1  UNL1        0.0031
     25 C          -5.8561  -15.5095   26.0508 C.ar    1  UNL1        0.0375
@<TRIPOS>BOND
     1    16    17    1
     2    17    15    1
     3    15     8    1
     4     8     9   ar
     5     9    10   ar
     6    10    11   ar
     7    11    12    1
     8    11    13   ar
     9    13    14   ar
    10    14     7    1
    11     7     1    1
    12     1     2   ar
    13     2     3   ar
    14     3     4   ar
    15     4     5   ar
    16     5     6   ar
    17     6    19    1
    18    19    20    1
    19    20    21   ar
    20    21    22   ar
    21    22    23   ar
    22    23    24   ar
    23    24    25   ar
    24    14     8   ar
    25     6     1   ar
    26    25    20   ar
    27    17    18    1
@<TRIPOS>MOLECULE
*****
 25 27 0 0 0
SMALL
GASTEIGER

@<TRIPOS>ATOM
      1 C          -8.4695  -17.4562   23.8488 C.ar    1  UNL1        0.1795
      2 C          -8.8046  -16.6568   25.0731 C.ar    1  UNL1        0.0407
      3 C          -7.9449  -15.4926   25.4672 C.ar    1  UNL1        0.0033
      4 C          -6.7501  -15.1276   24.6370 C.ar    1  UNL1        0.0033
      5 C          -6.4150  -15.9268   23.4127 C.ar    1  UNL1        0.0407
      6 C          -7.2747  -17.0912   23.0186 C.ar    1  UNL1        0.1795
      7 O          -9.3292  -18.6204   23.4547 O.3     1  UNL1       -0.4506
      8 C         -11.1937  -18.1578   21.7054 C.ar    1  UNL1        0.0473
      9 C         -12.6411  -17.9436   21.3755 C.ar    1  UNL1        0.0985
     10 N         -13.6717  -17.9776   22.4649 N.ar    1  UNL1       -0.2482
     11 C         -13.2548  -18.2259   23.8842 C.ar    1  UNL1        0.0624
     12 C         -14.2854  -18.2600   24.9736 C.3     1  UNL1        0.0522
     13 C         -11.8074  -18.4402   24.2141 C.ar    1  UNL1        0.0519
     14 C         -10.7768  -18.4061   23.1247 C.ar    1  UNL1        0.1454
     15 C         -10.1631  -18.1238   20.6160 C.3     1  UNL1        0.1003
     16 C          -8.6621  -19.6554   19.1494 C.3     1  UNL1        0.0861
     17 N          -9.1575  -19.2307   20.5001 N.3     1  UNL1       -0.2925
     18 H          -8.3393  -18.9426   21.0366 H       1  UNL1        0.1236
     19 O          -6.9396  -17.8905   21.7944 O.3     1  UNL1       -0.4504
     20 C          -5.5906  -18.5333   21.6644 C.ar    1  UNL1        0.1454
     21 C          -5.2777  -19.3853   20.4701 C.ar    1  UNL1        0.0375
     22 C          -3.9287  -20.0282   20.3402 C.ar    1  UNL1        0.0031
     23 C          -2.8926  -19.8191   21.4044 C.ar    1  UNL1        0.0002
     24 C          -3.2055  -18.9671   22.5988 C.ar    1  UNL1        0.0031
     25 C          -4.5545  -18.3243   22.7287 C.ar    1  UNL1        0.0375
@<TRIPOS>BOND
     1    16    17    1
     2    17    15    1
     3    15     8    1
     4     8     9   ar
     5     9    10   ar
     6    10    11   ar
     7    11    12    1
     8    11    13   ar
     9    13    14   ar
    10    14     7    1
    11     7     1    1
    12     1     2   ar
    13     2     3   ar
    14     3     4   ar
    15     4     5   ar
    16     5     6   ar
    17     6    19    1
    18    19    20    1
    19    20    21   ar
    20    21    22   ar
    21    22    23   ar
    22    23    24   ar
    23    24    25   ar
    24    14     8   ar
    25     6     1   ar
    26    25    20   ar
    27    17    18    1
@<TRIPOS>MOLECULE
*****
 25 27 0 0 0
SMALL
GASTEIGER

@<TRIPOS>ATOM
      1 C          -8.0560  -18.5026   22.7675 C.ar    1  UNL1        0.1795
      2 C          -7.9941  -19.9390   22.3398 C.ar    1  UNL1        0.0407
      3 C          -6.7363  -20.4877   21.7343 C.ar    1  UNL1        0.0033
      4 C          -5.5403  -19.6000   21.5565 C.ar    1  UNL1        0.0033
      5 C          -5.6021  -18.1636   21.9842 C.ar    1  UNL1        0.0407
      6 C          -6.8600  -17.6149   22.5897 C.ar    1  UNL1        0.1795
      7 O          -9.3139  -17.9539   23.3731 O.3     1  UNL1       -0.4506
      8 C         -11.8571  -18.0574   22.8520 C.ar    1  UNL1        0.0473
      9 C         -13.0186  -17.6997   21.9729 C.ar    1  UNL1        0.0985
     10 N         -12.7984  -16.8807   20.7356 N.ar    1  UNL1       -0.2482
     11 C         -11.4168  -16.4195   20.3775 C.ar    1  UNL1        0.0624
     12 C         -11.1967  -15.6005   19.1403 C.3     1  UNL1        0.0522
     13 C         -10.2553  -16.7772   21.2566 C.ar    1  UNL1        0.0519
     14 C         -10.4755  -17.5962   22.4939 C.ar    1  UNL1        0.1454
     15 C         -12.0772  -18.8764   24.0893 C.3     1  UNL1        0.1003
     16 C         -10.2761  -20.5180   24.9899 C.3     1  UNL1        0.0861
     17 N         -10.9294  -19.1679   25.0098 N.3     1  UNL1       -0.2925
     18 H         -10.2016  -18.4854   24.7982 H       1  UNL1        0.1236
     19 O          -6.9219  -16.1785   23.0174 O.3     1  UNL1       -0.4504
     20 C          -6.8806  -15.8276   24.4752 C.ar    1  UNL1        0.1454
     21 C          -8.1571  -15.7019   25.2528 C.ar    1  UNL1        0.0375
     22 C          -8.1158  -15.3509   26.7106 C.ar    1  UNL1        0.0031
     23 C          -6.7980  -15.1257   27.3908 C.ar    1  UNL1        0.0002
     24 C          -5.5214  -15.2514   26.6131 C.ar    1  UNL1        0.0031
     25 C          -5.5627  -15.6023   25.1553 C.ar    1  UNL1        0.0375
@<TRIPOS>BOND
     1    16    17    1
     2    17    15    1
     3    15     8    1
     4     8     9   ar
     5     9    10   ar
     6    10    11   ar
     7    11    12    1
     8    11    13   ar
     9    13    14   ar
    10    14     7    1
    11     7     1    1
    12     1     2   ar
    13     2     3   ar
    14     3     4   ar
    15     4     5   ar
    16     5     6   ar
    17     6    19    1
    18    19    20    1
    19    20    21   ar
    20    21    22   ar
    21    22    23   ar
    22    23    24   ar
    23    24    25   ar
    24    14     8   ar
    25     6     1   ar
    26    25    20   ar
    27    17    18    1
@<TRIPOS>MOLECULE
*****
 25 27 0 0 0
SMALL
GASTEIGER

@<TRIPOS>ATOM
      1 C          -7.5648  -19.1770   20.2806 C.ar    1  UNL1        0.1795
      2 C          -8.6773  -19.4049   19.3005 C.ar    1  UNL1        0.0407
      3 C          -8.7113  -20.6626   18.4838 C.ar    1  UNL1        0.0033
      4 C          -7.6330  -21.6924   18.6471 C.ar    1  UNL1        0.0033
      5 C          -6.5205  -21.4645   19.6272 C.ar    1  UNL1        0.0407
      6 C          -6.4864  -20.2068   20.4439 C.ar    1  UNL1        0.1795
      7 O          -7.5307  -17.9193   21.0973 O.3     1  UNL1       -0.4506
      8 C          -8.2385  -16.5944   23.2171 C.ar    1  UNL1        0.0473
      9 C          -8.9349  -16.5431   24.5446 C.ar    1  UNL1        0.0985
     10 N          -9.6200  -17.7655   25.0799 N.ar    1  UNL1       -0.2482
     11 C          -9.6087  -19.0391   24.2876 C.ar    1  UNL1        0.0624
     12 C         -10.2937  -20.2615   24.8229 C.3     1  UNL1        0.0522
     13 C          -8.9122  -19.0904   22.9601 C.ar    1  UNL1        0.0519
     14 C          -8.2272  -17.8680   22.4249 C.ar    1  UNL1        0.1454
     15 C          -7.5534  -15.3720   22.6819 C.3     1  UNL1        0.1003
     16 C          -5.3032  -15.6936   23.9399 C.3     1  UNL1        0.0861
     17 N          -6.3781  -14.7912   23.4107 N.3     1  UNL1       -0.2925
     18 H          -5.9262  -14.1399   22.7689 H       1  UNL1        0.1236
     19 O          -5.3740  -19.9789   21.4240 O.3     1  UNL1       -0.4504
     20 C          -4.2152  -19.1018   21.0526 C.ar    1  UNL1        0.1454
     21 C          -3.4361  -18.3956   22.1222 C.ar    1  UNL1        0.0375
     22 C          -2.2773  -17.5185   21.7508 C.ar    1  UNL1        0.0031
     23 C          -1.8976  -17.3476   20.3098 C.ar    1  UNL1        0.0002
     24 C          -2.6767  -18.0539   19.2401 C.ar    1  UNL1        0.0031
     25 C          -3.8355  -18.9310   19.6115 C.ar    1  UNL1        0.0375
@<TRIPOS>BOND
     1    16    17    1
     2    17    15    1
     3    15     8    1
     4     8     9   ar
     5     9    10   ar
     6    10    11   ar
     7    11    12    1
     8    11    13   ar
     9    13    14   ar
    10    14     7    1
    11     7     1    1
    12     1     2   ar
    13     2     3   ar
    14     3     4   ar
    15     4     5   ar
    16     5     6   ar
    17     6    19    1
    18    19    20    1
    19    20    21   ar
    20    21    22   ar
    21    22    23   ar
    22    23    24   ar
    23    24    25   ar
    24    14     8   ar
    25     6     1   ar
    26    25    20   ar
    27    17    18    1
@<TRIPOS>MOLECULE
*****
 25 27 0 0 0
SMALL
GASTEIGER

@<TRIPOS>ATOM
      1 C          -6.9709  -18.5673   21.0837 C.ar    1  UNL1        0.1795
      2 C          -5.7347  -19.1138   21.7342 C.ar    1  UNL1        0.0407
      3 C          -5.1469  -20.4091   21.2583 C.ar    1  UNL1        0.0033
      4 C          -5.7952  -21.1580   20.1318 C.ar    1  UNL1        0.0033
      5 C          -7.0314  -20.6115   19.4813 C.ar    1  UNL1        0.0407
      6 C          -7.6193  -19.3161   19.9572 C.ar    1  UNL1        0.1795
      7 O          -7.5587  -17.2719   21.5596 O.3     1  UNL1       -0.4506
      8 C          -8.0022  -15.9585   23.7569 C.ar    1  UNL1        0.0473
      9 C          -8.6316  -15.8750   25.1159 C.ar    1  UNL1        0.0985
     10 N          -9.4470  -17.0213   25.6365 N.ar    1  UNL1       -0.2482
     11 C          -9.6330  -18.2512   24.7982 C.ar    1  UNL1        0.0624
     12 C         -10.4484  -19.3975   25.3188 C.3     1  UNL1        0.0522
     13 C          -9.0036  -18.3347   23.4392 C.ar    1  UNL1        0.0519
     14 C          -8.1882  -17.1884   22.9186 C.ar    1  UNL1        0.1454
     15 C          -7.1868  -14.8122   23.2363 C.3     1  UNL1        0.1003
     16 C          -4.9785  -15.9350   24.0190 C.3     1  UNL1        0.0861
     17 N          -5.6922  -14.9227   23.1729 N.3     1  UNL1       -0.2925
     18 H          -5.4531  -15.1285   22.2030 H       1  UNL1        0.1236
     19 O          -8.8554  -18.7697   19.3067 O.3     1  UNL1       -0.4504
     20 C         -10.1056  -18.5787   20.1133 C.ar    1  UNL1        0.1454
     21 C         -10.7953  -17.2468   20.1238 C.ar    1  UNL1        0.0375
     22 C         -12.0454  -17.0558   20.9304 C.ar    1  UNL1        0.0031
     23 C         -12.6059  -18.1968   21.7266 C.ar    1  UNL1        0.0002
     24 C         -11.9162  -19.5289   21.7162 C.ar    1  UNL1        0.0031
     25 C         -10.6660  -19.7198   20.9095 C.ar    1  UNL1        0.0375
@<TRIPOS>BOND
     1    16    17    1
     2    17    15    1
     3    15     8    1
     4     8     9   ar
     5     9    10   ar
     6    10    11   ar
     7    11    12    1
     8    11    13   ar
     9    13    14   ar
    10    14     7    1
    11     7     1    1
    12     1     2   ar
    13     2     3   ar
    14     3     4   ar
    15     4     5   ar
    16     5     6   ar
    17     6    19    1
    18    19    20    1
    19    20    21   ar
    20    21    22   ar
    21    22    23   ar
    22    23    24   ar
    23    24    25   ar
    24    14     8   ar
    25     6     1   ar
    26    25    20   ar
    27    17    18    1
