@<TRIPOS>MOLECULE
*****
 30 33 0 0 0
SMALL
GASTEIGER

@<TRIPOS>ATOM
      1 C          -7.7795  -19.1754   21.7469 C.2     1  UNL1        0.2685
      2 O          -8.5462  -20.4647   21.7399 O.2     1  UNL1       -0.2682
      3 N          -8.4186  -17.9258   22.2761 N.am    1  UNL1       -0.2723
      4 C          -9.8241  -17.9653   22.7981 C.3     1  UNL1        0.0761
      5 C         -11.0202  -17.3235   22.1597 C.3     1  UNL1        0.0213
      6 C         -12.2158  -17.6151   23.0173 C.3     1  UNL1        0.0188
      7 C         -13.6939  -17.3987   23.1527 C.3     1  UNL1        0.0686
      8 N         -14.1503  -18.0870   24.4049 N.3     1  UNL1       -0.2975
      9 C         -12.9543  -18.7289   25.0433 C.3     1  UNL1        0.0686
     10 C         -11.7587  -18.4372   24.1857 C.3     1  UNL1        0.0188
     11 C         -10.2806  -18.6537   24.0503 C.3     1  UNL1        0.0213
     12 H         -14.8440  -18.7988   24.1754 H       1  UNL1        0.1232
     13 C          -2.5349  -19.6803   21.4016 C.3     1  UNL1        0.1321
     14 N          -3.9632  -19.3680   21.0661 N.ar    1  UNL1       -0.3057
     15 C          -4.4584  -18.7825   19.7771 C.ar    1  UNL1        0.1787
     16 N          -5.9483  -18.6390   19.8752 N.ar    1  UNL1       -0.2192
     17 C          -6.3739  -19.1359   21.2249 C.ar    1  UNL1        0.1535
     18 C          -5.1470  -19.5865   21.9610 C.ar    1  UNL1        0.1012
     19 C          -7.6518  -16.6365   22.2831 C.3     1  UNL1        0.1205
     20 C          -6.8008  -16.2765   23.4647 C.ar    1  UNL1        0.0007
     21 C          -5.3126  -16.4523   23.3985 C.ar    1  UNL1       -0.0024
     22 C          -4.4616  -16.0923   24.5802 C.ar    1  UNL1        0.0028
     23 C          -5.0989  -15.5565   25.8279 C.ar    1  UNL1        0.0372
     24 C          -6.5870  -15.3808   25.8940 C.ar    1  UNL1        0.1465
     25 C          -7.4380  -15.7407   24.7124 C.ar    1  UNL1        0.0346
     26 O          -7.2243  -14.8450   27.1418 O.3     1  UNL1       -0.4045
     27 C          -8.2882  -15.6385   27.8407 C.3     1  UNL1        0.5753
     28 F          -9.3522  -16.4320   28.5396 F       1  UNL1       -0.1328
     29 F          -7.4957  -16.8932   27.6225 F       1  UNL1       -0.1328
     30 F          -9.0808  -14.3838   28.0589 F       1  UNL1       -0.1328
@<TRIPOS>BOND
     1    13    14    1
     2    14    15   ar
     3    15    16   ar
     4    16    17   ar
     5    17     1    1
     6     1     2    2
     7     1     3   am
     8     3    19    1
     9    19    20    1
    10    20    21   ar
    11    21    22   ar
    12    22    23   ar
    13    23    24   ar
    14    24    26    1
    15    26    27    1
    16    27    28    1
    17    27    29    1
    18    27    30    1
    19    24    25   ar
    20     4     3    1
    21     4     5    1
    22     6     5    1
    23     6     7    1
    24     7     8    1
    25     8     9    1
    26    10     9    1
    27    10    11    1
    28    17    18   ar
    29    18    14   ar
    30    25    20   ar
    31    11     4    1
    32    10     6    1
    33     8    12    1
@<TRIPOS>MOLECULE
*****
 30 33 0 0 0
SMALL
GASTEIGER

@<TRIPOS>ATOM
      1 C          -9.2227  -18.9205   21.3831 C.2     1  UNL1        0.2685
      2 O          -9.0329  -20.2754   20.7682 O.2     1  UNL1       -0.2682
      3 N          -8.0302  -18.0703   21.7073 N.am    1  UNL1       -0.2723
      4 C          -6.6480  -18.5751   21.4166 C.3     1  UNL1        0.0761
      5 C          -6.0927  -18.8937   20.0600 C.3     1  UNL1        0.0213
      6 C          -4.6798  -19.3654   20.2365 C.3     1  UNL1        0.0188
      7 C          -3.4635  -19.8538   19.5071 C.3     1  UNL1        0.0686
      8 N          -2.3937  -20.1286   20.5220 N.3     1  UNL1       -0.2975
      9 C          -2.9488  -19.8100   21.8786 C.3     1  UNL1        0.0686
     10 C          -4.3618  -19.3383   21.7021 C.3     1  UNL1        0.0188
     11 C          -5.5781  -18.8499   22.4315 C.3     1  UNL1        0.0213
     12 H          -1.5801  -19.5426   20.3346 H       1  UNL1        0.1232
     13 C         -13.7961  -17.9304   23.8294 C.3     1  UNL1        0.1321
     14 N         -12.7072  -17.9607   22.7981 N.ar    1  UNL1       -0.3057
     15 C         -12.7571  -17.3176   21.4440 C.ar    1  UNL1        0.1787
     16 N         -11.4579  -17.5988   20.7491 N.ar    1  UNL1       -0.2192
     17 C         -10.6050  -18.4157   21.6737 C.ar    1  UNL1        0.1535
     18 C         -11.3771  -18.6394   22.9402 C.ar    1  UNL1        0.1012
     19 C          -8.2200  -16.7153   22.3222 C.3     1  UNL1        0.1205
     20 C          -7.2576  -16.2220   23.3616 C.ar    1  UNL1        0.0007
     21 C          -5.9582  -15.5990   22.9451 C.ar    1  UNL1       -0.0024
     22 C          -4.9958  -15.1056   23.9846 C.ar    1  UNL1        0.0028
     23 C          -5.3329  -15.2353   25.4404 C.ar    1  UNL1        0.0372
     24 C          -6.6322  -15.8582   25.8568 C.ar    1  UNL1        0.1465
     25 C          -7.5946  -16.3516   24.8175 C.ar    1  UNL1        0.0346
     26 O          -6.9693  -15.9879   27.3128 O.3     1  UNL1       -0.4045
     27 C          -8.1319  -15.2313   27.8836 C.3     1  UNL1        0.5753
     28 F          -9.2946  -14.4747   28.4545 F       1  UNL1       -0.1328
     29 F          -8.9721  -16.4721   27.8170 F       1  UNL1       -0.1328
     30 F          -7.2918  -13.9905   27.9503 F       1  UNL1       -0.1328
@<TRIPOS>BOND
     1    13    14    1
     2    14    15   ar
     3    15    16   ar
     4    16    17   ar
     5    17     1    1
     6     1     2    2
     7     1     3   am
     8     3    19    1
     9    19    20    1
    10    20    21   ar
    11    21    22   ar
    12    22    23   ar
    13    23    24   ar
    14    24    26    1
    15    26    27    1
    16    27    28    1
    17    27    29    1
    18    27    30    1
    19    24    25   ar
    20     4     3    1
    21     4     5    1
    22     6     5    1
    23     6     7    1
    24     7     8    1
    25     8     9    1
    26    10     9    1
    27    10    11    1
    28    17    18   ar
    29    18    14   ar
    30    25    20   ar
    31    11     4    1
    32    10     6    1
    33     8    12    1
@<TRIPOS>MOLECULE
*****
 30 33 0 0 0
SMALL
GASTEIGER

@<TRIPOS>ATOM
      1 C          -9.6303  -19.0138   21.5757 C.2     1  UNL1        0.2685
      2 O          -9.4077  -20.4212   21.1072 O.2     1  UNL1       -0.2682
      3 N          -8.4654  -18.0811   21.7282 N.am    1  UNL1       -0.2723
      4 C          -7.0782  -18.5558   21.4122 C.3     1  UNL1        0.0761
      5 C          -5.9667  -18.7515   22.4004 C.3     1  UNL1        0.0213
      6 C          -4.7603  -19.2349   21.6515 C.3     1  UNL1        0.0188
      7 C          -3.3278  -19.6546   21.7994 C.3     1  UNL1        0.0686
      8 N          -2.8083  -20.0170   20.4397 N.3     1  UNL1       -0.2975
      9 C          -3.9197  -19.8214   19.4515 C.3     1  UNL1        0.0686
     10 C          -5.1261  -19.3380   20.2004 C.3     1  UNL1        0.0188
     11 C          -6.5586  -18.9183   20.0525 C.3     1  UNL1        0.0213
     12 H          -2.5066  -20.9913   20.4329 H       1  UNL1        0.1232
     13 C         -14.1216  -17.9902   24.1565 C.3     1  UNL1        0.1321
     14 N         -13.0821  -18.0686   23.0779 N.ar    1  UNL1       -0.3057
     15 C         -13.2231  -17.5486   21.6781 C.ar    1  UNL1        0.1787
     16 N         -11.9472  -17.8394   20.9449 N.ar    1  UNL1       -0.2192
     17 C         -11.0177  -18.5390   21.8917 C.ar    1  UNL1        0.1535
     18 C         -11.7191  -18.6807   23.2100 C.ar    1  UNL1        0.1012
     19 C          -8.6880  -16.6736   22.1967 C.3     1  UNL1        0.1205
     20 C          -8.2191  -16.2533   23.5581 C.ar    1  UNL1        0.0007
     21 C          -9.2170  -15.8610   24.6071 C.ar    1  UNL1       -0.0024
     22 C          -8.7480  -15.4407   25.9686 C.ar    1  UNL1        0.0028
     23 C          -7.2811  -15.4129   26.2809 C.ar    1  UNL1        0.0372
     24 C          -6.2833  -15.8053   25.2320 C.ar    1  UNL1        0.1465
     25 C          -6.7523  -16.2255   23.8706 C.ar    1  UNL1        0.0346
     26 O          -4.8164  -15.7774   25.5444 O.3     1  UNL1       -0.4045
     27 C          -3.9271  -16.8876   25.0685 C.3     1  UNL1        0.5753
     28 F          -3.0378  -17.9980   24.5926 F       1  UNL1       -0.1328
     29 F          -3.9387  -17.4864   26.4438 F       1  UNL1       -0.1328
     30 F          -3.9155  -16.2890   23.6932 F       1  UNL1       -0.1328
@<TRIPOS>BOND
     1    13    14    1
     2    14    15   ar
     3    15    16   ar
     4    16    17   ar
     5    17     1    1
     6     1     2    2
     7     1     3   am
     8     3    19    1
     9    19    20    1
    10    20    21   ar
    11    21    22   ar
    12    22    23   ar
    13    23    24   ar
    14    24    26    1
    15    26    27    1
    16    27    28    1
    17    27    29    1
    18    27    30    1
    19    24    25   ar
    20     4     3    1
    21     4     5    1
    22     6     5    1
    23     6     7    1
    24     7     8    1
    25     8     9    1
    26    10     9    1
    27    10    11    1
    28    17    18   ar
    29    18    14   ar
    30    25    20   ar
    31    11     4    1
    32    10     6    1
    33     8    12    1
@<TRIPOS>MOLECULE
*****
 30 33 0 0 0
SMALL
GASTEIGER

@<TRIPOS>ATOM
      1 C          -9.2132  -17.6681   21.6373 C.2     1  UNL1        0.2685
      2 O          -9.8192  -16.3017   21.7622 O.2     1  UNL1       -0.2682
      3 N          -8.2361  -18.1522   22.6673 N.am    1  UNL1       -0.2723
      4 C          -7.8650  -17.2699   23.8221 C.3     1  UNL1        0.0761
      5 C          -8.7101  -16.9982   25.0313 C.3     1  UNL1        0.0213
      6 C          -7.9511  -16.0648   25.9271 C.3     1  UNL1        0.0188
      7 C          -8.0043  -15.3200   27.2281 C.3     1  UNL1        0.0686
      8 N          -6.7230  -14.5544   27.3766 N.3     1  UNL1       -0.2975
      9 C          -5.8778  -14.8260   26.1674 C.3     1  UNL1        0.0686
     10 C          -6.6369  -15.7595   25.2716 C.3     1  UNL1        0.0188
     11 C          -6.5836  -16.5043   23.9707 C.3     1  UNL1        0.0213
     12 H          -6.2327  -14.8598   28.2173 H       1  UNL1        0.1232
     13 C          -8.8901  -21.0468   17.5924 C.3     1  UNL1        0.1321
     14 N          -9.4358  -20.1034   18.6231 N.ar    1  UNL1       -0.3057
     15 C         -10.8747  -19.7128   18.7870 C.ar    1  UNL1        0.1787
     16 N         -10.9664  -18.7530   19.9361 N.ar    1  UNL1       -0.2192
     17 C          -9.5843  -18.5504   20.4823 C.ar    1  UNL1        0.1535
     18 C          -8.6382  -19.3850   19.6709 C.ar    1  UNL1        0.1012
     19 C          -7.6300  -19.5187   22.5423 C.3     1  UNL1        0.1205
     20 C          -6.2682  -19.6824   21.9352 C.ar    1  UNL1        0.0007
     21 C          -6.0802  -20.5755   20.7448 C.ar    1  UNL1       -0.0024
     22 C          -4.7182  -20.7392   20.1377 C.ar    1  UNL1        0.0028
     23 C          -3.5445  -20.0098   20.7210 C.ar    1  UNL1        0.0372
     24 C          -3.7326  -19.1167   21.9113 C.ar    1  UNL1        0.1465
     25 C          -5.0944  -18.9530   22.5185 C.ar    1  UNL1        0.0346
     26 O          -2.5588  -18.3873   22.4947 O.3     1  UNL1       -0.4045
     27 C          -2.3006  -16.9587   22.1171 C.3     1  UNL1        0.5753
     28 F          -2.0423  -15.5301   21.7395 F       1  UNL1       -0.1328
     29 F          -1.3020  -17.4100   21.0928 F       1  UNL1       -0.1328
     30 F          -3.2991  -16.5074   23.1414 F       1  UNL1       -0.1328
@<TRIPOS>BOND
     1    13    14    1
     2    14    15   ar
     3    15    16   ar
     4    16    17   ar
     5    17     1    1
     6     1     2    2
     7     1     3   am
     8     3    19    1
     9    19    20    1
    10    20    21   ar
    11    21    22   ar
    12    22    23   ar
    13    23    24   ar
    14    24    26    1
    15    26    27    1
    16    27    28    1
    17    27    29    1
    18    27    30    1
    19    24    25   ar
    20     4     3    1
    21     4     5    1
    22     6     5    1
    23     6     7    1
    24     7     8    1
    25     8     9    1
    26    10     9    1
    27    10    11    1
    28    17    18   ar
    29    18    14   ar
    30    25    20   ar
    31    11     4    1
    32    10     6    1
    33     8    12    1
@<TRIPOS>MOLECULE
*****
 30 33 0 0 0
SMALL
GASTEIGER

@<TRIPOS>ATOM
      1 C          -0.4552    3.0994   21.5243 C.2     1  UNL1        0.2685
      2 O          -0.2469    4.1028   22.6196 O.2     1  UNL1       -0.2682
      3 N           0.3056    1.8068   21.5367 N.am    1  UNL1       -0.2723
      4 C           1.2747    1.5175   22.6445 C.3     1  UNL1        0.0761
      5 C           2.7572    1.7415   22.6000 C.3     1  UNL1        0.0213
      6 C           3.3302    1.3159   23.9193 C.3     1  UNL1        0.0188
      7 C           4.6005    1.1913   24.7071 C.3     1  UNL1        0.0686
      8 N           4.2572    0.6272   26.0539 N.3     1  UNL1       -0.2975
      9 C           2.7747    0.4032   26.0985 C.3     1  UNL1        0.0686
     10 C           2.2018    0.8288   24.7792 C.3     1  UNL1        0.0188
     11 C           0.9314    0.9534   23.9914 C.3     1  UNL1        0.0213
     12 H           4.5301    1.2848   26.7843 H       1  UNL1        0.1232
     13 C          -4.9425    3.6991   18.8068 C.3     1  UNL1        0.1321
     14 N          -3.4869    3.6644   19.1674 N.ar    1  UNL1       -0.3057
     15 C          -2.3445    4.0035   18.2565 C.ar    1  UNL1        0.1787
     16 N          -1.0698    3.8332   19.0285 N.ar    1  UNL1       -0.2192
     17 C          -1.4243    3.3888   20.4165 C.ar    1  UNL1        0.1535
     18 C          -2.9182    3.2844   20.5024 C.ar    1  UNL1        0.1012
     19 C           0.0973    0.8033   20.4413 C.3     1  UNL1        0.1205
     20 C           1.2796    0.1860   19.7550 C.ar    1  UNL1        0.0007
     21 C           1.8513    0.8262   18.5248 C.ar    1  UNL1       -0.0024
     22 C           3.0336    0.2088   17.8385 C.ar    1  UNL1        0.0028
     23 C           3.6442   -1.0487   18.3825 C.ar    1  UNL1        0.0372
     24 C           3.0725   -1.6888   19.6126 C.ar    1  UNL1        0.1465
     25 C           1.8902   -1.0715   20.2989 C.ar    1  UNL1        0.0346
     26 O           3.6831   -2.9464   20.1566 O.3     1  UNL1       -0.4045
     27 C           4.1363   -4.0263   19.2193 C.3     1  UNL1        0.5753
     28 F           4.5894   -5.1063   18.2820 F       1  UNL1       -0.1328
     29 F           5.5652   -3.6477   19.4740 F       1  UNL1       -0.1328
     30 F           2.7074   -4.4049   18.9646 F       1  UNL1       -0.1328
@<TRIPOS>BOND
     1    13    14    1
     2    14    15   ar
     3    15    16   ar
     4    16    17   ar
     5    17     1    1
     6     1     2    2
     7     1     3   am
     8     3    19    1
     9    19    20    1
    10    20    21   ar
    11    21    22   ar
    12    22    23   ar
    13    23    24   ar
    14    24    26    1
    15    26    27    1
    16    27    28    1
    17    27    29    1
    18    27    30    1
    19    24    25   ar
    20     4     3    1
    21     4     5    1
    22     6     5    1
    23     6     7    1
    24     7     8    1
    25     8     9    1
    26    10     9    1
    27    10    11    1
    28    17    18   ar
    29    18    14   ar
    30    25    20   ar
    31    11     4    1
    32    10     6    1
    33     8    12    1
@<TRIPOS>MOLECULE
*****
 30 33 0 0 0
SMALL
GASTEIGER

@<TRIPOS>ATOM
      1 C           1.0341    2.4497   21.8941 C.2     1  UNL1        0.2685
      2 O           0.9710    3.9139   22.2134 O.2     1  UNL1       -0.2682
      3 N           0.1916    1.8861   20.7884 N.am    1  UNL1       -0.2723
      4 C          -0.7140    2.7868   20.0020 C.3     1  UNL1        0.0761
      5 C          -2.0949    3.2155   20.4014 C.3     1  UNL1        0.0213
      6 C          -2.6322    4.1106   19.3243 C.3     1  UNL1        0.0188
      7 C          -3.8176    4.9287   18.9055 C.3     1  UNL1        0.0686
      8 N          -3.5014    5.5589   17.5816 N.3     1  UNL1       -0.2975
      9 C          -2.1206    5.1302   17.1821 C.3     1  UNL1        0.0686
     10 C          -1.5833    4.2351   18.2592 C.3     1  UNL1        0.0188
     11 C          -0.3979    3.4170   18.6780 C.3     1  UNL1        0.0213
     12 H          -3.5382    6.5748   17.6642 H       1  UNL1        0.1232
     13 C           5.3367   -0.0710   23.6302 C.3     1  UNL1        0.1321
     14 N           3.9175    0.3904   23.4786 N.ar    1  UNL1       -0.3057
     15 C           2.7498   -0.0642   24.3029 C.ar    1  UNL1        0.1787
     16 N           1.5275    0.6519   23.8097 N.ar    1  UNL1       -0.2192
     17 C           1.9398    1.5490   22.6806 C.ar    1  UNL1        0.1535
     18 C           3.4170    1.3874   22.4759 C.ar    1  UNL1        0.1012
     19 C           0.2548    0.4218   20.4692 C.3     1  UNL1        0.1205
     20 C           1.4370   -0.1348   19.7326 C.ar    1  UNL1        0.0007
     21 C           1.9028    0.5136   18.4627 C.ar    1  UNL1       -0.0024
     22 C           3.0851   -0.0431   17.7262 C.ar    1  UNL1        0.0028
     23 C           3.8015   -1.2481   18.2597 C.ar    1  UNL1        0.0372
     24 C           3.3358   -1.8964   19.5295 C.ar    1  UNL1        0.1465
     25 C           2.1536   -1.3398   20.2660 C.ar    1  UNL1        0.0346
     26 O           4.0523   -3.1015   20.0630 O.3     1  UNL1       -0.4045
     27 C           4.3806   -4.2445   19.1488 C.3     1  UNL1        0.5753
     28 F           4.7090   -5.3876   18.2345 F       1  UNL1       -0.1328
     29 F           5.8411   -3.9279   19.2774 F       1  UNL1       -0.1328
     30 F           2.9201   -4.5612   19.0201 F       1  UNL1       -0.1328
@<TRIPOS>BOND
     1    13    14    1
     2    14    15   ar
     3    15    16   ar
     4    16    17   ar
     5    17     1    1
     6     1     2    2
     7     1     3   am
     8     3    19    1
     9    19    20    1
    10    20    21   ar
    11    21    22   ar
    12    22    23   ar
    13    23    24   ar
    14    24    26    1
    15    26    27    1
    16    27    28    1
    17    27    29    1
    18    27    30    1
    19    24    25   ar
    20     4     3    1
    21     4     5    1
    22     6     5    1
    23     6     7    1
    24     7     8    1
    25     8     9    1
    26    10     9    1
    27    10    11    1
    28    17    18   ar
    29    18    14   ar
    30    25    20   ar
    31    11     4    1
    32    10     6    1
    33     8    12    1
@<TRIPOS>MOLECULE
*****
 30 33 0 0 0
SMALL
GASTEIGER

@<TRIPOS>ATOM
      1 C           5.4948   -2.0631   24.9297 C.2     1  UNL1        0.2685
      2 O           4.1592   -1.5333   24.4990 O.2     1  UNL1       -0.2682
      3 N           6.3301   -2.8597   23.9718 N.am    1  UNL1       -0.2723
      4 C           5.8299   -3.1264   22.5831 C.3     1  UNL1        0.0761
      5 C           4.6227   -3.9401   22.2218 C.3     1  UNL1        0.0213
      6 C           4.4958   -3.9429   20.7272 C.3     1  UNL1        0.0188
      7 C           3.6712   -4.4475   19.5803 C.3     1  UNL1        0.0686
      8 N           4.2905   -3.9474   18.3089 N.3     1  UNL1       -0.2975
      9 C           5.4977   -3.1337   18.6701 C.3     1  UNL1        0.0686
     10 C           5.6246   -3.1309   20.1647 C.3     1  UNL1        0.0188
     11 C           6.4492   -2.6263   21.3116 C.3     1  UNL1        0.0213
     12 H           3.6212   -3.3677   17.8026 H       1  UNL1        0.1232
     13 C           6.2285   -2.3754   30.1494 C.3     1  UNL1        0.1321
     14 N           6.3322   -1.9399   28.7177 N.ar    1  UNL1       -0.3057
     15 C           7.1968   -0.8320   28.1936 C.ar    1  UNL1        0.1787
     16 N           6.9884   -0.7433   26.7108 N.ar    1  UNL1       -0.2192
     17 C           5.9950   -1.7963   26.3185 C.ar    1  UNL1        0.1535
     18 C           5.5893   -2.5359   27.5589 C.ar    1  UNL1        0.1012
     19 C           7.6657   -3.3895   24.4026 C.3     1  UNL1        0.1205
     20 C           7.8071   -4.8268   24.8076 C.ar    1  UNL1        0.0007
     21 C           8.0940   -5.8732   23.7718 C.ar    1  UNL1       -0.0024
     22 C           8.2355   -7.3106   24.1769 C.ar    1  UNL1        0.0028
     23 C           8.0900   -7.7015   25.6177 C.ar    1  UNL1        0.0372
     24 C           7.8031   -6.6552   26.6534 C.ar    1  UNL1        0.1465
     25 C           7.6617   -5.2178   26.2485 C.ar    1  UNL1        0.0346
     26 O           7.6576   -7.0461   28.0943 O.3     1  UNL1       -0.4045
     27 C           7.9545   -6.0496   29.1754 C.3     1  UNL1        0.5753
     28 F           8.2513   -5.0530   30.2566 F       1  UNL1       -0.1328
     29 F           6.4854   -5.8041   29.3525 F       1  UNL1       -0.1328
     30 F           9.4236   -6.2950   28.9984 F       1  UNL1       -0.1328
@<TRIPOS>BOND
     1    13    14    1
     2    14    15   ar
     3    15    16   ar
     4    16    17   ar
     5    17     1    1
     6     1     2    2
     7     1     3   am
     8     3    19    1
     9    19    20    1
    10    20    21   ar
    11    21    22   ar
    12    22    23   ar
    13    23    24   ar
    14    24    26    1
    15    26    27    1
    16    27    28    1
    17    27    29    1
    18    27    30    1
    19    24    25   ar
    20     4     3    1
    21     4     5    1
    22     6     5    1
    23     6     7    1
    24     7     8    1
    25     8     9    1
    26    10     9    1
    27    10    11    1
    28    17    18   ar
    29    18    14   ar
    30    25    20   ar
    31    11     4    1
    32    10     6    1
    33     8    12    1
@<TRIPOS>MOLECULE
*****
 30 33 0 0 0
SMALL
GASTEIGER

@<TRIPOS>ATOM
      1 C           4.8991    0.2238   34.4297 C.2     1  UNL1        0.2685
      2 O           5.3231   -0.7174   35.5180 O.2     1  UNL1       -0.2682
      3 N           5.2559   -0.0702   33.0028 N.am    1  UNL1       -0.2723
      4 C           6.0367   -1.3053   32.6641 C.3     1  UNL1        0.0761
      5 C           5.4629   -2.6647   32.3937 C.3     1  UNL1        0.0213
      6 C           6.6000   -3.5975   32.0988 C.3     1  UNL1        0.0188
      7 C           6.9481   -5.0141   31.7494 C.3     1  UNL1        0.0686
      8 N           8.4398   -5.1067   31.6217 N.3     1  UNL1       -0.2975
      9 C           9.0136   -3.7474   31.8921 C.3     1  UNL1        0.0686
     10 C           7.8765   -2.8146   32.1870 C.3     1  UNL1        0.0188
     11 C           7.5284   -1.3980   32.5363 C.3     1  UNL1        0.0213
     12 H           8.6885   -5.4061   30.6789 H       1  UNL1        0.1232
     13 C           3.5757    4.9549   36.3651 C.3     1  UNL1        0.1321
     14 N           3.5099    3.6335   35.6581 N.ar    1  UNL1       -0.3057
     15 C           2.3237    3.0857   34.9216 C.ar    1  UNL1        0.1787
     16 N           2.6996    1.7417   34.3718 N.ar    1  UNL1       -0.2192
     17 C           4.1182    1.4589   34.7685 C.ar    1  UNL1        0.1535
     18 C           4.6191    2.6282   35.5635 C.ar    1  UNL1        0.1012
     19 C           4.8318    0.8710   31.9145 C.3     1  UNL1        0.1205
     20 C           4.0281    0.3628   30.7544 C.ar    1  UNL1        0.0007
     21 C           4.7203   -0.0861   29.5017 C.ar    1  UNL1       -0.0024
     22 C           3.9165   -0.5944   28.3416 C.ar    1  UNL1        0.0028
     23 C           2.4205   -0.6537   28.4345 C.ar    1  UNL1        0.0372
     24 C           1.7284   -0.2048   29.6871 C.ar    1  UNL1        0.1465
     25 C           2.5321    0.3035   30.8472 C.ar    1  UNL1        0.0346
     26 O           0.2324   -0.2641   29.7799 O.3     1  UNL1       -0.4045
     27 C          -0.6108    0.4467   28.7631 C.3     1  UNL1        0.5753
     28 F          -1.4541    1.1574   27.7463 F       1  UNL1       -0.1328
     29 F          -1.2643   -0.8528   28.3967 F       1  UNL1       -0.1328
     30 F           0.0426    1.7462   29.1295 F       1  UNL1       -0.1328
@<TRIPOS>BOND
     1    13    14    1
     2    14    15   ar
     3    15    16   ar
     4    16    17   ar
     5    17     1    1
     6     1     2    2
     7     1     3   am
     8     3    19    1
     9    19    20    1
    10    20    21   ar
    11    21    22   ar
    12    22    23   ar
    13    23    24   ar
    14    24    26    1
    15    26    27    1
    16    27    28    1
    17    27    29    1
    18    27    30    1
    19    24    25   ar
    20     4     3    1
    21     4     5    1
    22     6     5    1
    23     6     7    1
    24     7     8    1
    25     8     9    1
    26    10     9    1
    27    10    11    1
    28    17    18   ar
    29    18    14   ar
    30    25    20   ar
    31    11     4    1
    32    10     6    1
    33     8    12    1
@<TRIPOS>MOLECULE
*****
 30 33 0 0 0
SMALL
GASTEIGER

@<TRIPOS>ATOM
      1 C           2.3117    1.5262   22.9204 C.2     1  UNL1        0.2685
      2 O           2.1251    2.6633   21.9601 O.2     1  UNL1       -0.2682
      3 N           2.9638    0.2559   22.4610 N.am    1  UNL1       -0.2723
      4 C           3.4293    0.1227   21.0414 C.3     1  UNL1        0.0761
      5 C           2.6385   -0.4536   19.9045 C.3     1  UNL1        0.0213
      6 C           3.4879   -0.3900   18.6697 C.3     1  UNL1        0.0188
      7 C           3.5240   -0.7070   17.2041 C.3     1  UNL1        0.0686
      8 N           4.8622   -0.2872   16.6720 N.3     1  UNL1       -0.2975
      9 C           5.6531    0.2891   17.8088 C.3     1  UNL1        0.0686
     10 C           4.8037    0.2256   19.0435 C.3     1  UNL1        0.0188
     11 C           4.7675    0.5425   20.5092 C.3     1  UNL1        0.0213
     12 H           4.7399    0.4163   15.9437 H       1  UNL1        0.1232
     13 C          -0.7092    1.3850   27.2488 C.3     1  UNL1        0.1321
     14 N           0.4576    1.5946   26.3296 N.ar    1  UNL1       -0.3057
     15 C           1.8015    2.1344   26.7197 C.ar    1  UNL1        0.1787
     16 N           2.6596    2.1745   25.4901 N.ar    1  UNL1       -0.2192
     17 C           1.8461    1.6595   24.3401 C.ar    1  UNL1        0.1535
     18 C           0.4851    1.3010   24.8589 C.ar    1  UNL1        0.1012
     19 C           3.1503   -0.8812   23.4213 C.3     1  UNL1        0.1205
     20 C           4.2221   -1.9016   23.1763 C.ar    1  UNL1        0.0007
     21 C           5.3690   -2.0296   24.1344 C.ar    1  UNL1       -0.0024
     22 C           6.4408   -3.0501   23.8893 C.ar    1  UNL1        0.0028
     23 C           6.3655   -3.9425   22.6860 C.ar    1  UNL1        0.0372
     24 C           5.2186   -3.8145   21.7279 C.ar    1  UNL1        0.1465
     25 C           4.1469   -2.7941   21.9730 C.ar    1  UNL1        0.0346
     26 O           5.1433   -4.7070   20.5246 O.3     1  UNL1       -0.4045
     27 C           3.9808   -4.5995   19.5827 C.3     1  UNL1        0.5753
     28 F           2.8183   -4.4920   18.6409 F       1  UNL1       -0.1328
     29 F           4.7035   -3.5346   18.8122 F       1  UNL1       -0.1328
     30 F           3.2581   -5.6644   20.3532 F       1  UNL1       -0.1328
@<TRIPOS>BOND
     1    13    14    1
     2    14    15   ar
     3    15    16   ar
     4    16    17   ar
     5    17     1    1
     6     1     2    2
     7     1     3   am
     8     3    19    1
     9    19    20    1
    10    20    21   ar
    11    21    22   ar
    12    22    23   ar
    13    23    24   ar
    14    24    26    1
    15    26    27    1
    16    27    28    1
    17    27    29    1
    18    27    30    1
    19    24    25   ar
    20     4     3    1
    21     4     5    1
    22     6     5    1
    23     6     7    1
    24     7     8    1
    25     8     9    1
    26    10     9    1
    27    10    11    1
    28    17    18   ar
    29    18    14   ar
    30    25    20   ar
    31    11     4    1
    32    10     6    1
    33     8    12    1
