@<TRIPOS>MOLECULE
*****
 29 31 0 0 0
SMALL
GASTEIGER

@<TRIPOS>ATOM
      1 C          -7.0646  -19.7870   21.4377 C.ar    1  UNL1        0.1344
      2 C          -7.6563  -20.5064   22.6134 C.ar    1  UNL1        0.0310
      3 C          -8.9532  -20.0381   23.2040 C.ar    1  UNL1       -0.0067
      4 C          -9.5449  -20.7575   24.3799 C.3     1  UNL1        0.0319
      5 C          -9.6584  -18.8506   22.6189 C.ar    1  UNL1        0.0959
      6 C          -9.0667  -18.1312   21.4431 C.ar    1  UNL1        0.1393
      7 N          -7.7698  -18.5995   20.8525 N.ar    1  UNL1       -0.2154
      8 N          -5.7677  -20.2553   20.8470 N.pl3   1  UNL1       -0.2819
      9 H          -5.6741  -21.1861   20.5403 H       1  UNL1        0.1551
     10 C          -1.4857  -17.7664   19.0166 C.3     1  UNL1        0.0515
     11 C          -2.6452  -18.1613   19.8824 C.ar    1  UNL1        0.0548
     12 C          -3.6244  -19.2612   19.5969 C.ar    1  UNL1        0.0502
     13 C          -4.6134  -19.3053   20.7237 C.ar    1  UNL1        0.1539
     14 N          -4.2456  -18.2327   21.7057 N.ar    1  UNL1       -0.1577
     15 N          -3.0291  -17.5256   21.1857 N.ar    1  UNL1       -0.2786
     16 H          -2.5643  -16.7760   21.6230 H       1  UNL1        0.1886
     17 C         -10.9553  -18.3824   23.2096 C.1     1  UNL1        0.1029
     18 N         -12.2522  -17.9142   23.8002 N.1     1  UNL1       -0.1907
     19 N          -9.7719  -16.9437   20.8580 N.pl3   1  UNL1       -0.3145
     20 H         -10.2858  -17.0382   20.0236 H       1  UNL1        0.1483
     21 C          -9.6940  -15.6121   21.5441 C.3     1  UNL1        0.1362
     22 C          -8.3578  -15.0068   21.8575 C.3     1  UNL1        0.2265
     23 O          -7.3248  -15.8090   22.5920 O.3     1  UNL1       -0.4736
     24 C          -7.1955  -15.6815   24.0810 C.ar    1  UNL1        0.1386
     25 C          -5.8522  -15.4265   24.6980 C.ar    1  UNL1        0.0369
     26 C          -5.7229  -15.2990   26.1870 C.ar    1  UNL1        0.0031
     27 C          -6.9368  -15.4265   27.0589 C.ar    1  UNL1        0.0002
     28 C          -8.2800  -15.6816   26.4419 C.ar    1  UNL1        0.0031
     29 C          -8.4093  -15.8091   24.9529 C.ar    1  UNL1        0.0369
@<TRIPOS>BOND
     1    10    11    1
     2    11    12   ar
     3    12    13   ar
     4    13     8    1
     5     8     1    1
     6     1     2   ar
     7     2     3   ar
     8     3     4    1
     9     3     5   ar
    10     5    17    1
    11    17    18    3
    12     5     6   ar
    13     6    19    1
    14    19    21    1
    15    21    22    1
    16    22    23    1
    17    23    24    1
    18    24    25   ar
    19    25    26   ar
    20    26    27   ar
    21    27    28   ar
    22    28    29   ar
    23     6     7   ar
    24    13    14   ar
    25    14    15   ar
    26    15    11   ar
    27     7     1   ar
    28    29    24   ar
    29     8     9    1
    30    19    20    1
    31    15    16    1
@<TRIPOS>MOLECULE
*****
 29 31 0 0 0
SMALL
GASTEIGER

@<TRIPOS>ATOM
      1 C          -7.7883  -18.5333   21.5814 C.ar    1  UNL1        0.1344
      2 C          -7.3772  -19.7047   20.7395 C.ar    1  UNL1        0.0310
      3 C          -5.9464  -20.1546   20.7279 C.ar    1  UNL1       -0.0067
      4 C          -5.5352  -21.3260   19.8860 C.3     1  UNL1        0.0319
      5 C          -4.9265  -19.4331   21.5582 C.ar    1  UNL1        0.0959
      6 C          -5.3376  -18.2617   22.4001 C.ar    1  UNL1        0.1393
      7 N          -6.7684  -17.8118   22.4117 N.ar    1  UNL1       -0.2154
      8 N          -9.2192  -18.0834   21.5930 N.pl3   1  UNL1       -0.2819
      9 H          -9.5902  -17.6021   20.8184 H       1  UNL1        0.1551
     10 C         -13.4205  -18.4874   24.7658 C.3     1  UNL1        0.0515
     11 C         -12.0159  -18.5523   24.2431 C.ar    1  UNL1        0.0548
     12 C         -11.5628  -18.1284   22.8775 C.ar    1  UNL1        0.0502
     13 C         -10.0848  -18.3666   22.7848 C.ar    1  UNL1        0.1539
     14 N          -9.6244  -18.9378   24.0932 N.ar    1  UNL1       -0.1577
     15 N         -10.8178  -19.0526   24.9945 N.ar    1  UNL1       -0.2786
     16 H         -10.8153  -19.3959   25.9172 H       1  UNL1        0.1886
     17 C          -3.4956  -19.8831   21.5466 C.1     1  UNL1        0.1029
     18 N          -2.0648  -20.3330   21.5350 N.1     1  UNL1       -0.1907
     19 N          -4.3178  -17.5402   23.2304 N.pl3   1  UNL1       -0.3145
     20 H          -3.9849  -17.9459   24.0634 H       1  UNL1        0.1483
     21 C          -3.8051  -16.2006   22.7916 C.3     1  UNL1        0.1362
     22 C          -4.4311  -14.9464   23.3253 C.3     1  UNL1        0.2265
     23 O          -5.9242  -14.8332   23.4158 O.3     1  UNL1       -0.4736
     24 C          -6.6226  -15.1391   24.7075 C.ar    1  UNL1        0.1386
     25 C          -5.8403  -15.2053   25.9857 C.ar    1  UNL1        0.0369
     26 C          -6.5388  -15.5112   27.2775 C.ar    1  UNL1        0.0031
     27 C          -8.0195  -15.7510   27.2910 C.ar    1  UNL1        0.0002
     28 C          -8.8017  -15.6848   26.0128 C.ar    1  UNL1        0.0031
     29 C          -8.1032  -15.3789   24.7211 C.ar    1  UNL1        0.0369
@<TRIPOS>BOND
     1    10    11    1
     2    11    12   ar
     3    12    13   ar
     4    13     8    1
     5     8     1    1
     6     1     2   ar
     7     2     3   ar
     8     3     4    1
     9     3     5   ar
    10     5    17    1
    11    17    18    3
    12     5     6   ar
    13     6    19    1
    14    19    21    1
    15    21    22    1
    16    22    23    1
    17    23    24    1
    18    24    25   ar
    19    25    26   ar
    20    26    27   ar
    21    27    28   ar
    22    28    29   ar
    23     6     7   ar
    24    13    14   ar
    25    14    15   ar
    26    15    11   ar
    27     7     1   ar
    28    29    24   ar
    29     8     9    1
    30    19    20    1
    31    15    16    1
@<TRIPOS>MOLECULE
*****
 29 31 0 0 0
SMALL
GASTEIGER

@<TRIPOS>ATOM
      1 C          -3.9779  -18.4448   22.4045 C.ar    1  UNL1        0.1344
      2 C          -4.0744  -17.2452   23.2999 C.ar    1  UNL1        0.0310
      3 C          -5.4183  -16.6890   23.6663 C.ar    1  UNL1       -0.0067
      4 C          -5.5148  -15.4894   24.5617 C.3     1  UNL1        0.0319
      5 C          -6.6659  -17.3323   23.1373 C.ar    1  UNL1        0.0959
      6 C          -6.5694  -18.5318   22.2419 C.ar    1  UNL1        0.1393
      7 N          -5.2255  -19.0881   21.8755 N.ar    1  UNL1       -0.2154
      8 N          -2.6339  -19.0011   22.0381 N.pl3   1  UNL1       -0.2819
      9 H          -2.1855  -19.6401   22.6379 H       1  UNL1        0.1551
     10 C          -1.8853  -17.4503   17.0466 C.3     1  UNL1        0.0515
     11 C          -1.6291  -17.8709   18.4634 C.ar    1  UNL1        0.0548
     12 C          -2.6732  -18.2242   19.4808 C.ar    1  UNL1        0.0502
     13 C          -1.9732  -18.5837   20.7577 C.ar    1  UNL1        0.1539
     14 N          -0.4964  -18.4527   20.5296 N.ar    1  UNL1       -0.1577
     15 N          -0.2837  -18.0122   19.1116 N.ar    1  UNL1       -0.2786
     16 H           0.5861  -17.8451   18.6818 H       1  UNL1        0.1886
     17 C          -8.0099  -16.7760   23.5037 C.1     1  UNL1        0.1029
     18 N          -9.3538  -16.2196   23.8702 N.1     1  UNL1       -0.1907
     19 N          -7.8170  -19.1751   21.7129 N.pl3   1  UNL1       -0.3145
     20 H          -8.5301  -19.4502   22.3334 H       1  UNL1        0.1483
     21 C          -7.9780  -19.3992   20.2385 C.3     1  UNL1        0.1362
     22 C          -9.3480  -19.4176   19.6280 C.3     1  UNL1        0.2265
     23 O         -10.1799  -18.1694   19.6143 O.3     1  UNL1       -0.4736
     24 C         -11.0517  -17.8363   20.7886 C.ar    1  UNL1        0.1386
     25 C         -11.3215  -18.8717   21.8400 C.ar    1  UNL1        0.0369
     26 C         -12.1934  -18.5386   23.0143 C.ar    1  UNL1        0.0031
     27 C         -12.7954  -17.1702   23.1372 C.ar    1  UNL1        0.0002
     28 C         -12.5256  -16.1350   22.0858 C.ar    1  UNL1        0.0031
     29 C         -11.6538  -16.4680   20.9115 C.ar    1  UNL1        0.0369
@<TRIPOS>BOND
     1    10    11    1
     2    11    12   ar
     3    12    13   ar
     4    13     8    1
     5     8     1    1
     6     1     2   ar
     7     2     3   ar
     8     3     4    1
     9     3     5   ar
    10     5    17    1
    11    17    18    3
    12     5     6   ar
    13     6    19    1
    14    19    21    1
    15    21    22    1
    16    22    23    1
    17    23    24    1
    18    24    25   ar
    19    25    26   ar
    20    26    27   ar
    21    27    28   ar
    22    28    29   ar
    23     6     7   ar
    24    13    14   ar
    25    14    15   ar
    26    15    11   ar
    27     7     1   ar
    28    29    24   ar
    29     8     9    1
    30    19    20    1
    31    15    16    1
@<TRIPOS>MOLECULE
*****
 29 31 0 0 0
SMALL
GASTEIGER

@<TRIPOS>ATOM
      1 C          -6.6981  -18.9585   21.4978 C.ar    1  UNL1        0.1344
      2 C          -7.6855  -19.6565   20.6103 C.ar    1  UNL1        0.0310
      3 C          -9.0111  -19.0190   20.3163 C.ar    1  UNL1       -0.0067
      4 C          -9.9986  -19.7170   19.4287 C.3     1  UNL1        0.0319
      5 C          -9.3493  -17.6836   20.9098 C.ar    1  UNL1        0.0959
      6 C          -8.3618  -16.9856   21.7974 C.ar    1  UNL1        0.1393
      7 N          -7.0363  -17.6230   22.0914 N.ar    1  UNL1       -0.2154
      8 N          -5.3725  -19.5959   21.7919 N.pl3   1  UNL1       -0.2819
      9 H          -5.3352  -20.5148   22.1433 H       1  UNL1        0.1551
     10 C          -0.7669  -18.0323   19.7366 C.3     1  UNL1        0.0515
     11 C          -1.9866  -18.1146   20.6058 C.ar    1  UNL1        0.0548
     12 C          -3.0919  -19.1210   20.4811 C.ar    1  UNL1        0.0502
     13 C          -4.1036  -18.8333   21.5505 C.ar    1  UNL1        0.1539
     14 N          -3.6235  -17.6491   22.3362 N.ar    1  UNL1       -0.1577
     15 N          -2.3152  -17.2049   21.7524 N.ar    1  UNL1       -0.2786
     16 H          -1.7682  -16.4490   22.0665 H       1  UNL1        0.1886
     17 C         -10.6749  -17.0462   20.6158 C.1     1  UNL1        0.1029
     18 N         -12.0005  -16.4088   20.3218 N.1     1  UNL1       -0.1907
     19 N          -8.7000  -15.6502   22.3909 N.pl3   1  UNL1       -0.3145
     20 H          -9.2626  -15.0168   21.8893 H       1  UNL1        0.1483
     21 C          -8.1810  -15.2798   23.7486 C.3     1  UNL1        0.1362
     22 C          -8.9889  -15.5960   24.9723 C.3     1  UNL1        0.2265
     23 O          -9.0646  -17.0065   25.4772 O.3     1  UNL1       -0.4736
     24 C          -9.7795  -18.0529   24.6748 C.ar    1  UNL1        0.1386
     25 C         -11.1561  -17.7809   24.1446 C.ar    1  UNL1        0.0369
     26 C         -11.8711  -18.8274   23.3423 C.ar    1  UNL1        0.0031
     27 C         -11.2094  -20.1458   23.0701 C.ar    1  UNL1        0.0002
     28 C          -9.8329  -20.4178   23.6003 C.ar    1  UNL1        0.0031
     29 C          -9.1180  -19.3713   24.4027 C.ar    1  UNL1        0.0369
@<TRIPOS>BOND
     1    10    11    1
     2    11    12   ar
     3    12    13   ar
     4    13     8    1
     5     8     1    1
     6     1     2   ar
     7     2     3   ar
     8     3     4    1
     9     3     5   ar
    10     5    17    1
    11    17    18    3
    12     5     6   ar
    13     6    19    1
    14    19    21    1
    15    21    22    1
    16    22    23    1
    17    23    24    1
    18    24    25   ar
    19    25    26   ar
    20    26    27   ar
    21    27    28   ar
    22    28    29   ar
    23     6     7   ar
    24    13    14   ar
    25    14    15   ar
    26    15    11   ar
    27     7     1   ar
    28    29    24   ar
    29     8     9    1
    30    19    20    1
    31    15    16    1
@<TRIPOS>MOLECULE
*****
 29 31 0 0 0
SMALL
GASTEIGER

@<TRIPOS>ATOM
      1 C          -9.0080  -16.7407   22.0387 C.ar    1  UNL1        0.1344
      2 C         -10.2775  -17.3768   21.5552 C.ar    1  UNL1        0.0310
      3 C         -10.2227  -18.5003   20.5628 C.ar    1  UNL1       -0.0067
      4 C         -11.4922  -19.1365   20.0792 C.3     1  UNL1        0.0319
      5 C          -8.8985  -18.9877   20.0540 C.ar    1  UNL1        0.0959
      6 C          -7.6290  -18.3516   20.5375 C.ar    1  UNL1        0.1393
      7 N          -7.6838  -17.2281   21.5299 N.ar    1  UNL1       -0.2154
      8 N          -9.0628  -15.6172   23.0311 N.pl3   1  UNL1       -0.2819
      9 H          -9.7809  -14.9461   22.9757 H       1  UNL1        0.1551
     10 C          -6.7134  -15.6284   27.7598 C.3     1  UNL1        0.0515
     11 C          -6.9435  -15.5214   26.2814 C.ar    1  UNL1        0.0548
     12 C          -8.2531  -15.7165   25.5765 C.ar    1  UNL1        0.0502
     13 C          -8.0234  -15.5163   24.1078 C.ar    1  UNL1        0.1539
     14 N          -6.5717  -15.1975   23.9049 N.ar    1  UNL1       -0.1577
     15 N          -5.9043  -15.2007   25.2482 N.ar    1  UNL1       -0.2786
     16 H          -4.9515  -15.0233   25.4214 H       1  UNL1        0.1886
     17 C          -8.8438  -20.1112   19.0616 C.1     1  UNL1        0.1029
     18 N          -8.7890  -21.2347   18.0693 N.1     1  UNL1       -0.1907
     19 N          -6.3048  -18.8389   20.0287 N.pl3   1  UNL1       -0.3145
     20 H          -5.8250  -18.3282   19.3372 H       1  UNL1        0.1483
     21 C          -5.7117  -20.1043   20.5735 C.3     1  UNL1        0.1362
     22 C          -4.4567  -20.6640   19.9720 C.3     1  UNL1        0.2265
     23 O          -3.1401  -20.4642   20.6626 O.3     1  UNL1       -0.4736
     24 C          -2.6315  -19.0769   20.9205 C.ar    1  UNL1        0.1386
     25 C          -3.0702  -18.3330   22.1470 C.ar    1  UNL1        0.0369
     26 C          -2.5615  -16.9457   22.4048 C.ar    1  UNL1        0.0031
     27 C          -1.6141  -16.3021   21.4361 C.ar    1  UNL1        0.0002
     28 C          -1.1754  -17.0459   20.2097 C.ar    1  UNL1        0.0031
     29 C          -1.6841  -18.4333   19.9518 C.ar    1  UNL1        0.0369
@<TRIPOS>BOND
     1    10    11    1
     2    11    12   ar
     3    12    13   ar
     4    13     8    1
     5     8     1    1
     6     1     2   ar
     7     2     3   ar
     8     3     4    1
     9     3     5   ar
    10     5    17    1
    11    17    18    3
    12     5     6   ar
    13     6    19    1
    14    19    21    1
    15    21    22    1
    16    22    23    1
    17    23    24    1
    18    24    25   ar
    19    25    26   ar
    20    26    27   ar
    21    27    28   ar
    22    28    29   ar
    23     6     7   ar
    24    13    14   ar
    25    14    15   ar
    26    15    11   ar
    27     7     1   ar
    28    29    24   ar
    29     8     9    1
    30    19    20    1
    31    15    16    1
@<TRIPOS>MOLECULE
*****
 29 31 0 0 0
SMALL
GASTEIGER

@<TRIPOS>ATOM
      1 C          -9.2174  -17.1889   22.1935 C.ar    1  UNL1        0.1344
      2 C          -9.7331  -17.6223   23.5337 C.ar    1  UNL1        0.0310
      3 C          -9.0704  -17.1316   24.7867 C.ar    1  UNL1       -0.0067
      4 C          -9.5860  -17.5650   26.1270 C.3     1  UNL1        0.0319
      5 C          -7.8920  -16.2076   24.6994 C.ar    1  UNL1        0.0959
      6 C          -7.3764  -15.7742   23.3592 C.ar    1  UNL1        0.1393
      7 N          -8.0391  -16.2649   22.1062 N.ar    1  UNL1       -0.2154
      8 N          -9.8801  -17.6796   20.9404 N.pl3   1  UNL1       -0.2819
      9 H         -10.7450  -17.3016   20.6605 H       1  UNL1        0.1551
     10 C          -9.1165  -21.5710   17.4541 C.3     1  UNL1        0.0515
     11 C          -8.8742  -20.5350   18.5114 C.ar    1  UNL1        0.0548
     12 C          -9.9031  -19.6115   19.0932 C.ar    1  UNL1        0.0502
     13 C          -9.2252  -18.7463   20.1139 C.ar    1  UNL1        0.1539
     14 N          -7.7772  -19.1351   20.1630 N.ar    1  UNL1       -0.1577
     15 N          -7.5603  -20.2406   19.1726 N.ar    1  UNL1       -0.2786
     16 H          -6.7056  -20.6934   18.9888 H       1  UNL1        0.1886
     17 C          -7.2293  -15.7169   25.9525 C.1     1  UNL1        0.1029
     18 N          -6.5666  -15.2262   27.2055 N.1     1  UNL1       -0.1907
     19 N          -6.1981  -14.8501   23.2720 N.pl3   1  UNL1       -0.3145
     20 H          -6.3354  -13.8939   23.0818 H       1  UNL1        0.1483
     21 C          -4.8106  -15.3828   23.4745 C.3     1  UNL1        0.1362
     22 C          -4.5876  -16.8591   23.6191 C.3     1  UNL1        0.2265
     23 O          -3.2530  -17.4529   23.2782 O.3     1  UNL1       -0.4736
     24 C          -2.9205  -17.7821   21.8530 C.ar    1  UNL1        0.1386
     25 C          -3.6767  -18.8614   21.1365 C.ar    1  UNL1        0.0369
     26 C          -3.3442  -19.1905   19.7113 C.ar    1  UNL1        0.0031
     27 C          -2.2556  -18.4403   19.0026 C.ar    1  UNL1        0.0002
     28 C          -1.4995  -17.3610   19.7192 C.ar    1  UNL1        0.0031
     29 C          -1.8319  -17.0319   21.1444 C.ar    1  UNL1        0.0369
@<TRIPOS>BOND
     1    10    11    1
     2    11    12   ar
     3    12    13   ar
     4    13     8    1
     5     8     1    1
     6     1     2   ar
     7     2     3   ar
     8     3     4    1
     9     3     5   ar
    10     5    17    1
    11    17    18    3
    12     5     6   ar
    13     6    19    1
    14    19    21    1
    15    21    22    1
    16    22    23    1
    17    23    24    1
    18    24    25   ar
    19    25    26   ar
    20    26    27   ar
    21    27    28   ar
    22    28    29   ar
    23     6     7   ar
    24    13    14   ar
    25    14    15   ar
    26    15    11   ar
    27     7     1   ar
    28    29    24   ar
    29     8     9    1
    30    19    20    1
    31    15    16    1
@<TRIPOS>MOLECULE
*****
 29 31 0 0 0
SMALL
GASTEIGER

@<TRIPOS>ATOM
      1 C          -6.8483  -15.6894   23.5745 C.ar    1  UNL1        0.1344
      2 C          -7.4610  -16.3796   24.7570 C.ar    1  UNL1        0.0310
      3 C          -8.9044  -16.7861   24.7232 C.ar    1  UNL1       -0.0067
      4 C          -9.5171  -17.4763   25.9057 C.3     1  UNL1        0.0319
      5 C          -9.7352  -16.5025   23.5069 C.ar    1  UNL1        0.0959
      6 C          -9.1226  -15.8123   22.3244 C.ar    1  UNL1        0.1393
      7 N          -7.6791  -15.4058   22.3582 N.ar    1  UNL1       -0.2154
      8 N          -5.4048  -15.2828   23.6083 N.pl3   1  UNL1       -0.2819
      9 H          -5.1403  -14.4424   24.0475 H       1  UNL1        0.1551
     10 C          -2.7213  -19.5345   21.9952 C.3     1  UNL1        0.0515
     11 C          -3.1310  -18.1110   22.2313 C.ar    1  UNL1        0.0548
     12 C          -4.3475  -17.6565   22.9819 C.ar    1  UNL1        0.0502
     13 C          -4.3645  -16.1567   22.9727 C.ar    1  UNL1        0.1539
     14 N          -3.1583  -15.6841   22.2164 N.ar    1  UNL1       -0.1577
     15 N          -2.3960  -16.8919   21.7581 N.ar    1  UNL1       -0.2786
     16 H          -1.5600  -16.8856   21.2382 H       1  UNL1        0.1886
     17 C         -11.1787  -16.9091   23.4732 C.1     1  UNL1        0.1029
     18 N         -12.6221  -17.3156   23.4395 N.1     1  UNL1       -0.1907
     19 N          -9.9534  -15.5287   21.1082 N.pl3   1  UNL1       -0.3145
     20 H          -9.7558  -14.7425   20.5495 H       1  UNL1        0.1483
     21 C         -11.0852  -16.4428   20.7432 C.3     1  UNL1        0.1362
     22 C         -11.0017  -17.2815   19.5024 C.3     1  UNL1        0.2265
     23 O         -10.3661  -18.6392   19.5563 O.3     1  UNL1       -0.4736
     24 C          -9.9180  -19.2059   20.8709 C.ar    1  UNL1        0.1386
     25 C         -10.9108  -19.8686   21.7793 C.ar    1  UNL1        0.0369
     26 C         -10.4628  -20.4353   23.0939 C.ar    1  UNL1        0.0031
     27 C          -9.0220  -20.3393   23.5000 C.ar    1  UNL1        0.0002
     28 C          -8.0293  -19.6766   22.5916 C.ar    1  UNL1        0.0031
     29 C          -8.4773  -19.1099   21.2770 C.ar    1  UNL1        0.0369
@<TRIPOS>BOND
     1    10    11    1
     2    11    12   ar
     3    12    13   ar
     4    13     8    1
     5     8     1    1
     6     1     2   ar
     7     2     3   ar
     8     3     4    1
     9     3     5   ar
    10     5    17    1
    11    17    18    3
    12     5     6   ar
    13     6    19    1
    14    19    21    1
    15    21    22    1
    16    22    23    1
    17    23    24    1
    18    24    25   ar
    19    25    26   ar
    20    26    27   ar
    21    27    28   ar
    22    28    29   ar
    23     6     7   ar
    24    13    14   ar
    25    14    15   ar
    26    15    11   ar
    27     7     1   ar
    28    29    24   ar
    29     8     9    1
    30    19    20    1
    31    15    16    1
@<TRIPOS>MOLECULE
*****
 29 31 0 0 0
SMALL
GASTEIGER

@<TRIPOS>ATOM
      1 C          -5.9535  -16.1300   23.5640 C.ar    1  UNL1        0.1344
      2 C          -6.7846  -15.5902   24.6899 C.ar    1  UNL1        0.0310
      3 C          -8.1050  -16.2221   25.0174 C.ar    1  UNL1       -0.0067
      4 C          -8.9362  -15.6822   26.1433 C.3     1  UNL1        0.0319
      5 C          -8.5943  -17.3939   24.2189 C.ar    1  UNL1        0.0959
      6 C          -7.7631  -17.9337   23.0930 C.ar    1  UNL1        0.1393
      7 N          -6.4428  -17.3018   22.7655 N.ar    1  UNL1       -0.2154
      8 N          -4.6331  -15.4981   23.2365 N.pl3   1  UNL1       -0.2819
      9 H          -4.4728  -14.5515   23.4544 H       1  UNL1        0.1551
     10 C          -1.7641  -19.5840   21.5175 C.3     1  UNL1        0.0515
     11 C          -2.2381  -18.1866   21.7869 C.ar    1  UNL1        0.0548
     12 C          -3.4702  -17.8058   22.5529 C.ar    1  UNL1        0.0502
     13 C          -3.5568  -16.3085   22.5770 C.ar    1  UNL1        0.1539
     14 N          -2.3782  -15.7639   21.8258 N.ar    1  UNL1       -0.1577
     15 N          -1.5632  -16.9245   21.3374 N.ar    1  UNL1       -0.2786
     16 H          -0.7313  -16.8680   20.8139 H       1  UNL1        0.1886
     17 C          -9.9147  -18.0258   24.5464 C.1     1  UNL1        0.1029
     18 N         -11.2351  -18.6577   24.8738 N.1     1  UNL1       -0.1907
     19 N          -8.2524  -19.1055   22.2945 N.pl3   1  UNL1       -0.3145
     20 H          -8.7960  -19.8032   22.7268 H       1  UNL1        0.1483
     21 C          -7.9134  -19.2142   20.8374 C.3     1  UNL1        0.1362
     22 C          -9.0087  -19.3299   19.8191 C.3     1  UNL1        0.2265
     23 O          -9.8678  -18.1415   19.5034 O.3     1  UNL1       -0.4736
     24 C         -10.8031  -17.5952   20.5411 C.ar    1  UNL1        0.1386
     25 C         -10.5126  -16.2754   21.1923 C.ar    1  UNL1        0.0369
     26 C         -11.4478  -15.7292   22.2300 C.ar    1  UNL1        0.0031
     27 C         -12.6735  -16.5027   22.6166 C.ar    1  UNL1        0.0002
     28 C         -12.9640  -17.8224   21.9655 C.ar    1  UNL1        0.0031
     29 C         -12.0287  -18.3686   20.9277 C.ar    1  UNL1        0.0369
@<TRIPOS>BOND
     1    10    11    1
     2    11    12   ar
     3    12    13   ar
     4    13     8    1
     5     8     1    1
     6     1     2   ar
     7     2     3   ar
     8     3     4    1
     9     3     5   ar
    10     5    17    1
    11    17    18    3
    12     5     6   ar
    13     6    19    1
    14    19    21    1
    15    21    22    1
    16    22    23    1
    17    23    24    1
    18    24    25   ar
    19    25    26   ar
    20    26    27   ar
    21    27    28   ar
    22    28    29   ar
    23     6     7   ar
    24    13    14   ar
    25    14    15   ar
    26    15    11   ar
    27     7     1   ar
    28    29    24   ar
    29     8     9    1
    30    19    20    1
    31    15    16    1
@<TRIPOS>MOLECULE
*****
 29 31 0 0 0
SMALL
GASTEIGER

@<TRIPOS>ATOM
      1 C          -8.6028  -17.3859   22.8066 C.ar    1  UNL1        0.1344
      2 C          -9.1220  -16.6835   24.0260 C.ar    1  UNL1        0.0310
      3 C          -8.1783  -15.9329   24.9181 C.ar    1  UNL1       -0.0067
      4 C          -8.6975  -15.2304   26.1375 C.3     1  UNL1        0.0319
      5 C          -6.7152  -15.8847   24.5908 C.ar    1  UNL1        0.0959
      6 C          -6.1959  -16.5871   23.3714 C.ar    1  UNL1        0.1393
      7 N          -7.1397  -17.3377   22.4793 N.ar    1  UNL1       -0.2154
      8 N          -9.5465  -18.1365   21.9145 N.pl3   1  UNL1       -0.2819
      9 H          -9.1945  -18.6924   21.1821 H       1  UNL1        0.1551
     10 C         -14.2842  -18.1475   24.2457 C.3     1  UNL1        0.0515
     11 C         -13.2043  -18.0453   23.2097 C.ar    1  UNL1        0.0548
     12 C         -11.7348  -18.2316   23.4464 C.ar    1  UNL1        0.0502
     13 C         -11.0266  -18.0402   22.1381 C.ar    1  UNL1        0.1539
     14 N         -12.0583  -17.7356   21.0927 N.ar    1  UNL1       -0.1577
     15 N         -13.4042  -17.7387   21.7550 N.ar    1  UNL1       -0.2786
     16 H         -14.2672  -17.5694   21.3125 H       1  UNL1        0.1886
     17 C          -5.7714  -15.1340   25.4829 C.1     1  UNL1        0.1029
     18 N          -4.8277  -14.3835   26.3751 N.1     1  UNL1       -0.1907
     19 N          -4.7329  -16.5389   23.0441 N.pl3   1  UNL1       -0.3145
     20 H          -4.3510  -15.7405   22.6128 H       1  UNL1        0.1483
     21 C          -3.8517  -17.7071   23.3739 C.3     1  UNL1        0.1362
     22 C          -4.1928  -19.0733   22.8571 C.3     1  UNL1        0.2265
     23 O          -4.1421  -19.3522   21.3840 O.3     1  UNL1       -0.4736
     24 C          -3.0445  -18.7653   20.5469 C.ar    1  UNL1        0.1386
     25 C          -1.6291  -18.7875   21.0434 C.ar    1  UNL1        0.0369
     26 C          -0.5315  -18.2006   20.2062 C.ar    1  UNL1        0.0031
     27 C          -0.8492  -17.5915   18.8727 C.ar    1  UNL1        0.0002
     28 C          -2.2645  -17.5694   18.3764 C.ar    1  UNL1        0.0031
     29 C          -3.3621  -18.1563   19.2135 C.ar    1  UNL1        0.0369
@<TRIPOS>BOND
     1    10    11    1
     2    11    12   ar
     3    12    13   ar
     4    13     8    1
     5     8     1    1
     6     1     2   ar
     7     2     3   ar
     8     3     4    1
     9     3     5   ar
    10     5    17    1
    11    17    18    3
    12     5     6   ar
    13     6    19    1
    14    19    21    1
    15    21    22    1
    16    22    23    1
    17    23    24    1
    18    24    25   ar
    19    25    26   ar
    20    26    27   ar
    21    27    28   ar
    22    28    29   ar
    23     6     7   ar
    24    13    14   ar
    25    14    15   ar
    26    15    11   ar
    27     7     1   ar
    28    29    24   ar
    29     8     9    1
    30    19    20    1
    31    15    16    1
