@<TRIPOS>MOLECULE
*****
 26 29 0 0 0
SMALL
GASTEIGER

@<TRIPOS>ATOM
      1 C          -4.2560  -17.7186   23.1253 C.ar    1  UNL1       -0.0004
      2 C          -5.3208  -18.2725   22.2257 C.ar    1  UNL1        0.0957
      3 N          -6.6370  -17.6957   22.6558 N.ar    1  UNL1       -0.2067
      4 C          -6.3856  -16.7853   23.8211 C.ar    1  UNL1        0.0823
      5 C          -7.3065  -15.9453   24.6555 C.ar    1  UNL1        0.0189
      6 C          -6.7559  -15.1195   25.7800 C.ar    1  UNL1        0.0015
      7 C          -5.2843  -15.1336   26.0702 C.ar    1  UNL1        0.0001
      8 C          -4.3633  -15.9736   25.2359 C.ar    1  UNL1        0.0012
      9 C          -4.9140  -16.7995   24.1113 C.ar    1  UNL1        0.0151
     10 S          -7.9705  -17.9794   22.0303 S.O2    1  UNL1        0.1038
     11 O          -7.9822  -19.3359   22.6704 O.2     1  UNL1       -0.1461
     12 O          -7.9589  -16.6229   21.3901 O.2     1  UNL1       -0.1461
     13 C          -9.3041  -18.2631   21.4047 C.ar    1  UNL1        0.2241
     14 C          -9.5372  -19.0209   20.1314 C.ar    1  UNL1        0.1761
     15 CL         -8.4779  -19.6280   19.2601 Cl      1  UNL1       -0.0582
     16 N         -11.0158  -19.0649   19.8824 N.ar    1  UNL1       -0.2075
     17 C         -11.6964  -18.3343   21.0018 C.ar    1  UNL1        0.1813
     18 S         -13.0307  -17.9101   21.5397 S.2     1  UNL1       -0.0479
     19 C         -12.7975  -17.1523   22.8131 C.ar    1  UNL1        0.0574
     20 C         -11.3190  -17.1083   23.0621 C.ar    1  UNL1        0.0903
     21 N         -10.6384  -17.8388   21.9427 N.ar    1  UNL1       -0.2665
     22 C          -2.7903  -18.0293   23.0518 C.3     1  UNL1        0.0448
     23 N          -2.0525  -20.0457   21.5889 N.3     1  UNL1       -0.3209
     24 C          -2.2000  -18.5654   21.7812 C.3     1  UNL1        0.0699
     25 H          -1.6367  -20.2302   20.6760 H       1  UNL1        0.1189
     26 H          -2.9700  -20.4884   21.6404 H       1  UNL1        0.1189
@<TRIPOS>BOND
     1    23    24    1
     2    24    22    1
     3    22     1    1
     4     1     2   ar
     5     2     3   ar
     6     3    10    1
     7    10    11    2
     8    10    12    2
     9    10    13    1
    10    13    14   ar
    11    14    15    1
    12    14    16   ar
    13    16    17   ar
    14    17    18   ar
    15    18    19   ar
    16    19    20   ar
    17    20    21   ar
    18     3     4   ar
    19     4     5   ar
    20     5     6   ar
    21     6     7   ar
    22     7     8   ar
    23     8     9   ar
    24     9     1   ar
    25    21    13   ar
    26     9     4   ar
    27    21    17   ar
    28    23    25    1
    29    23    26    1
@<TRIPOS>MOLECULE
*****
 26 29 0 0 0
SMALL
GASTEIGER

@<TRIPOS>ATOM
      1 C         -16.6635   -8.3020   19.5597 C.ar    1  UNL1       -0.0004
      2 C         -15.2230   -7.9307   19.3672 C.ar    1  UNL1        0.0957
      3 N         -15.1401   -6.4371   19.2571 N.ar    1  UNL1       -0.2067
      4 C         -16.5293   -5.8852   19.3815 C.ar    1  UNL1        0.0823
      5 C         -17.0586   -4.4821   19.3487 C.ar    1  UNL1        0.0189
      6 C         -18.5294   -4.2316   19.5029 C.ar    1  UNL1        0.0015
      7 C         -19.4710   -5.3842   19.6899 C.ar    1  UNL1        0.0001
      8 C         -18.9417   -6.7873   19.7227 C.ar    1  UNL1        0.0012
      9 C         -17.4709   -7.0378   19.5685 C.ar    1  UNL1        0.0151
     10 S         -13.8877   -5.6359   19.0576 S.O2    1  UNL1        0.1038
     11 O         -14.0049   -5.8221   17.5739 O.2     1  UNL1       -0.1461
     12 O         -13.7705   -5.4497   20.5414 O.2     1  UNL1       -0.1461
     13 C         -12.6354   -4.8347   18.8582 C.ar    1  UNL1        0.2241
     14 C         -11.2393   -5.3803   18.8019 C.ar    1  UNL1        0.1761
     15 CL        -10.8505   -6.8229   18.9350 Cl      1  UNL1       -0.0582
     16 N         -10.3004   -4.2301   18.5890 N.ar    1  UNL1       -0.2075
     17 C         -11.1161   -2.9736   18.5138 C.ar    1  UNL1        0.1813
     18 S         -11.0400   -1.4862   18.3358 S.2     1  UNL1       -0.0479
     19 C         -12.4361   -0.9405   18.3922 C.ar    1  UNL1        0.0574
     20 C         -13.3750   -2.0907   18.6050 C.ar    1  UNL1        0.0903
     21 N         -12.5593   -3.3472   18.6802 N.ar    1  UNL1       -0.2665
     22 C         -17.2022   -9.6932   19.7158 C.3     1  UNL1        0.0448
     23 N         -16.7471  -12.1432   18.9804 N.3     1  UNL1       -0.3209
     24 C         -16.9913  -10.7055   18.6291 C.3     1  UNL1        0.0699
     25 H         -16.6261  -12.6863   18.1256 H       1  UNL1        0.1189
     26 H         -17.5443  -12.5056   19.5035 H       1  UNL1        0.1189
@<TRIPOS>BOND
     1    23    24    1
     2    24    22    1
     3    22     1    1
     4     1     2   ar
     5     2     3   ar
     6     3    10    1
     7    10    11    2
     8    10    12    2
     9    10    13    1
    10    13    14   ar
    11    14    15    1
    12    14    16   ar
    13    16    17   ar
    14    17    18   ar
    15    18    19   ar
    16    19    20   ar
    17    20    21   ar
    18     3     4   ar
    19     4     5   ar
    20     5     6   ar
    21     6     7   ar
    22     7     8   ar
    23     8     9   ar
    24     9     1   ar
    25    21    13   ar
    26     9     4   ar
    27    21    17   ar
    28    23    25    1
    29    23    26    1
@<TRIPOS>MOLECULE
*****
 26 29 0 0 0
SMALL
GASTEIGER

@<TRIPOS>ATOM
      1 C         -12.2957   -3.1472   18.9209 C.ar    1  UNL1       -0.0004
      2 C         -13.7319   -3.5672   18.8172 C.ar    1  UNL1        0.0957
      3 N         -13.7724   -5.0646   18.7391 N.ar    1  UNL1       -0.2067
      4 C         -12.3612   -5.5700   18.7946 C.ar    1  UNL1        0.0823
      5 C         -11.7893   -6.9562   18.7574 C.ar    1  UNL1        0.0189
      6 C         -10.3048   -7.1573   18.8325 C.ar    1  UNL1        0.0015
      7 C          -9.3921   -5.9722   18.9449 C.ar    1  UNL1        0.0001
      8 C          -9.9640   -4.5860   18.9821 C.ar    1  UNL1        0.0012
      9 C         -11.4485   -4.3849   18.9070 C.ar    1  UNL1        0.0151
     10 S         -15.0073   -5.9086   18.6255 S.O2    1  UNL1        0.1038
     11 O         -15.1997   -5.8269   20.1108 O.2     1  UNL1       -0.1461
     12 O         -14.8148   -5.9902   17.1401 O.2     1  UNL1       -0.1461
     13 C         -16.2422   -6.7525   18.5118 C.ar    1  UNL1        0.2241
     14 C         -17.6548   -6.2488   18.4850 C.ar    1  UNL1        0.1761
     15 CL        -18.0806   -4.8129   18.5672 Cl      1  UNL1       -0.0582
     16 N         -18.5669   -7.4332   18.3616 N.ar    1  UNL1       -0.2075
     17 C         -17.7180   -8.6689   18.3121 C.ar    1  UNL1        0.1813
     18 S         -17.7570  -10.1645   18.2052 S.2     1  UNL1       -0.0479
     19 C         -16.3444  -10.6682   18.2320 C.ar    1  UNL1        0.0574
     20 C         -15.4323   -9.4838   18.3554 C.ar    1  UNL1        0.0903
     21 N         -16.2812   -8.2482   18.4049 N.ar    1  UNL1       -0.2665
     22 C         -11.7946   -1.7369   19.0210 C.3     1  UNL1        0.0448
     23 N         -10.2895   -1.3303   16.9426 N.3     1  UNL1       -0.3209
     24 C         -11.4815   -0.9620   17.7753 C.3     1  UNL1        0.0699
     25 H         -10.2288   -0.7038   16.1400 H       1  UNL1        0.1189
     26 H         -10.3864   -2.2920   16.6167 H       1  UNL1        0.1189
@<TRIPOS>BOND
     1    23    24    1
     2    24    22    1
     3    22     1    1
     4     1     2   ar
     5     2     3   ar
     6     3    10    1
     7    10    11    2
     8    10    12    2
     9    10    13    1
    10    13    14   ar
    11    14    15    1
    12    14    16   ar
    13    16    17   ar
    14    17    18   ar
    15    18    19   ar
    16    19    20   ar
    17    20    21   ar
    18     3     4   ar
    19     4     5   ar
    20     5     6   ar
    21     6     7   ar
    22     7     8   ar
    23     8     9   ar
    24     9     1   ar
    25    21    13   ar
    26     9     4   ar
    27    21    17   ar
    28    23    25    1
    29    23    26    1
@<TRIPOS>MOLECULE
*****
 26 29 0 0 0
SMALL
GASTEIGER

@<TRIPOS>ATOM
      1 C         -12.4767   -3.3476   18.9337 C.ar    1  UNL1       -0.0004
      2 C         -13.8690   -3.8474   18.6850 C.ar    1  UNL1        0.0957
      3 N         -13.8022   -5.3351   18.5054 N.ar    1  UNL1       -0.2067
      4 C         -12.3687   -5.7548   18.6431 C.ar    1  UNL1        0.0823
      5 C         -11.7035   -7.0967   18.5617 C.ar    1  UNL1        0.0189
      6 C         -10.2191   -7.2103   18.7449 C.ar    1  UNL1        0.0015
      7 C          -9.3999   -5.9819   19.0096 C.ar    1  UNL1        0.0001
      8 C         -10.0651   -4.6400   19.0910 C.ar    1  UNL1        0.0012
      9 C         -11.5495   -4.5264   18.9078 C.ar    1  UNL1        0.0151
     10 S         -14.9648   -6.2437   18.2356 S.O2    1  UNL1        0.1038
     11 O         -14.7012   -6.1435   16.7624 O.2     1  UNL1       -0.1461
     12 O         -15.2284   -6.3439   19.7088 O.2     1  UNL1       -0.1461
     13 C         -16.1274   -7.1523   17.9658 C.ar    1  UNL1        0.2241
     14 C         -16.0774   -8.6496   17.8911 C.ar    1  UNL1        0.1761
     15 CL        -14.8560   -9.5011   18.0731 Cl      1  UNL1       -0.0582
     16 N         -17.4632   -9.1458   17.6025 N.ar    1  UNL1       -0.2075
     17 C         -18.3697   -7.9552   17.4988 C.ar    1  UNL1        0.1813
     18 S         -19.7863   -7.5261   17.2564 S.2     1  UNL1       -0.0479
     19 C         -19.8364   -6.0288   17.3310 C.ar    1  UNL1        0.0574
     20 C         -18.4506   -5.5326   17.6197 C.ar    1  UNL1        0.0903
     21 N         -17.5441   -6.7231   17.7233 N.ar    1  UNL1       -0.2665
     22 C         -12.0811   -1.9197   19.1672 C.3     1  UNL1        0.0448
     23 N         -10.3121   -1.0992   17.4503 N.3     1  UNL1       -0.3209
     24 C         -11.7039   -1.0466   18.0072 C.3     1  UNL1        0.0699
     25 H         -10.2325   -0.4453   16.6715 H       1  UNL1        0.1189
     26 H         -10.1125   -2.0443   17.1226 H       1  UNL1        0.1189
@<TRIPOS>BOND
     1    23    24    1
     2    24    22    1
     3    22     1    1
     4     1     2   ar
     5     2     3   ar
     6     3    10    1
     7    10    11    2
     8    10    12    2
     9    10    13    1
    10    13    14   ar
    11    14    15    1
    12    14    16   ar
    13    16    17   ar
    14    17    18   ar
    15    18    19   ar
    16    19    20   ar
    17    20    21   ar
    18     3     4   ar
    19     4     5   ar
    20     5     6   ar
    21     6     7   ar
    22     7     8   ar
    23     8     9   ar
    24     9     1   ar
    25    21    13   ar
    26     9     4   ar
    27    21    17   ar
    28    23    25    1
    29    23    26    1
@<TRIPOS>MOLECULE
*****
 26 29 0 0 0
SMALL
GASTEIGER

@<TRIPOS>ATOM
      1 C          -5.5760  -18.4800   22.1428 C.ar    1  UNL1       -0.0004
      2 C          -6.9775  -18.7911   21.7081 C.ar    1  UNL1        0.0957
      3 N          -7.9063  -17.8743   22.4475 N.ar    1  UNL1       -0.2067
      4 C          -7.0789  -16.9966   23.3392 C.ar    1  UNL1        0.0823
      5 C          -7.4508  -15.9049   24.2982 C.ar    1  UNL1        0.0189
      6 C          -6.3825  -15.1876   25.0689 C.ar    1  UNL1        0.0015
      7 C          -4.9422  -15.5620   24.8806 C.ar    1  UNL1        0.0001
      8 C          -4.5703  -16.6537   23.9216 C.ar    1  UNL1        0.0012
      9 C          -5.6386  -17.3710   23.1509 C.ar    1  UNL1        0.0151
     10 S          -9.4004  -17.8409   22.3180 S.O2    1  UNL1        0.1038
     11 O          -9.3486  -16.3575   22.1025 O.2     1  UNL1       -0.1461
     12 O          -9.4522  -19.3245   22.5336 O.2     1  UNL1       -0.1461
     13 C         -10.8944  -17.8077   22.1885 C.ar    1  UNL1        0.2241
     14 C         -11.6644  -17.4879   20.9416 C.ar    1  UNL1        0.1761
     15 CL        -11.0755  -17.1451   19.6053 Cl      1  UNL1       -0.0582
     16 N         -13.1266  -17.5709   21.2656 N.ar    1  UNL1       -0.2075
     17 C         -13.2604  -17.9421   22.7128 C.ar    1  UNL1        0.1813
     18 S         -14.2467  -18.2228   23.8074 S.2     1  UNL1       -0.0479
     19 C         -13.4768  -18.5427   25.0543 C.ar    1  UNL1        0.0574
     20 C         -12.0145  -18.4596   24.7303 C.ar    1  UNL1        0.0903
     21 N         -11.8808  -18.0884   23.2832 N.ar    1  UNL1       -0.2665
     22 C          -4.3305  -19.1589   21.6551 C.3     1  UNL1        0.0448
     23 N          -3.9543  -20.7603   19.6441 N.3     1  UNL1       -0.3209
     24 C          -4.1183  -19.3710   20.1854 C.3     1  UNL1        0.0699
     25 H          -3.8208  -20.7180   18.6337 H       1  UNL1        0.1189
     26 H          -4.7890  -21.3077   19.8541 H       1  UNL1        0.1189
@<TRIPOS>BOND
     1    23    24    1
     2    24    22    1
     3    22     1    1
     4     1     2   ar
     5     2     3   ar
     6     3    10    1
     7    10    11    2
     8    10    12    2
     9    10    13    1
    10    13    14   ar
    11    14    15    1
    12    14    16   ar
    13    16    17   ar
    14    17    18   ar
    15    18    19   ar
    16    19    20   ar
    17    20    21   ar
    18     3     4   ar
    19     4     5   ar
    20     5     6   ar
    21     6     7   ar
    22     7     8   ar
    23     8     9   ar
    24     9     1   ar
    25    21    13   ar
    26     9     4   ar
    27    21    17   ar
    28    23    25    1
    29    23    26    1
@<TRIPOS>MOLECULE
*****
 26 29 0 0 0
SMALL
GASTEIGER

@<TRIPOS>ATOM
      1 C          -4.6791  -19.2034   20.4065 C.ar    1  UNL1       -0.0004
      2 C          -6.1770  -19.1419   20.3581 C.ar    1  UNL1        0.0957
      3 N          -6.6545  -18.4772   21.6151 N.ar    1  UNL1       -0.2067
      4 C          -5.4517  -18.1279   22.4405 C.ar    1  UNL1        0.0823
      5 C          -5.3104  -17.4591   23.7756 C.ar    1  UNL1        0.0189
      6 C          -3.9482  -17.2392   24.3639 C.ar    1  UNL1        0.0015
      7 C          -2.7273  -17.6880   23.6169 C.ar    1  UNL1        0.0001
      8 C          -2.8686  -18.3568   22.2817 C.ar    1  UNL1        0.0012
      9 C          -4.2308  -18.5767   21.6935 C.ar    1  UNL1        0.0151
     10 S          -8.0839  -18.2089   21.9824 S.O2    1  UNL1        0.1038
     11 O          -8.3109  -19.6791   22.1733 O.2     1  UNL1       -0.1461
     12 O          -7.8569  -16.7385   21.7915 O.2     1  UNL1       -0.1461
     13 C          -9.5133  -17.9404   22.3496 C.ar    1  UNL1        0.2241
     14 C         -10.1621  -18.2650   23.6625 C.ar    1  UNL1        0.1761
     15 CL         -9.4955  -18.9149   24.8386 Cl      1  UNL1       -0.0582
     16 N         -11.5945  -17.8255   23.5928 N.ar    1  UNL1       -0.2075
     17 C         -11.8311  -17.2293   22.2368 C.ar    1  UNL1        0.1813
     18 S         -12.8625  -16.5893   21.3558 S.2     1  UNL1       -0.0479
     19 C         -12.2137  -16.2647   20.0429 C.ar    1  UNL1        0.0574
     20 C         -10.7812  -16.7042   20.1126 C.ar    1  UNL1        0.0903
     21 N         -10.5448  -17.3004   21.4685 N.ar    1  UNL1       -0.2665
     22 C          -3.7862  -19.7889   19.3530 C.3     1  UNL1        0.0448
     23 N          -2.4906  -17.6425   18.6710 N.3     1  UNL1       -0.3209
     24 C          -2.4984  -19.1066   18.9974 C.3     1  UNL1        0.0699
     25 H          -1.5384  -17.3475   18.4546 H       1  UNL1        0.1189
     26 H          -2.8367  -17.1138   19.4716 H       1  UNL1        0.1189
@<TRIPOS>BOND
     1    23    24    1
     2    24    22    1
     3    22     1    1
     4     1     2   ar
     5     2     3   ar
     6     3    10    1
     7    10    11    2
     8    10    12    2
     9    10    13    1
    10    13    14   ar
    11    14    15    1
    12    14    16   ar
    13    16    17   ar
    14    17    18   ar
    15    18    19   ar
    16    19    20   ar
    17    20    21   ar
    18     3     4   ar
    19     4     5   ar
    20     5     6   ar
    21     6     7   ar
    22     7     8   ar
    23     8     9   ar
    24     9     1   ar
    25    21    13   ar
    26     9     4   ar
    27    21    17   ar
    28    23    25    1
    29    23    26    1
@<TRIPOS>MOLECULE
*****
 26 29 0 0 0
SMALL
GASTEIGER

@<TRIPOS>ATOM
      1 C           3.3293   -2.0564   20.2128 C.ar    1  UNL1       -0.0004
      2 C           2.3901   -1.0072   19.6960 C.ar    1  UNL1        0.0957
      3 N           2.0183   -0.1131   20.8416 N.ar    1  UNL1       -0.2067
      4 C           2.7277   -0.6097   22.0664 C.ar    1  UNL1        0.0823
      5 C           2.7406   -0.1234   23.4853 C.ar    1  UNL1        0.0189
      6 C           3.5637   -0.8381   24.5156 C.ar    1  UNL1        0.0015
      7 C           4.3739   -2.0392   24.1270 C.ar    1  UNL1        0.0001
      8 C           4.3611   -2.5255   22.7081 C.ar    1  UNL1        0.0012
      9 C           3.5380   -1.8107   21.6778 C.ar    1  UNL1        0.0151
     10 S           1.0986    1.0700   20.7742 S.O2    1  UNL1        0.1038
     11 O          -0.0858    0.1497   20.7818 O.2     1  UNL1       -0.1461
     12 O           2.2830    1.9903   20.7666 O.2     1  UNL1       -0.1461
     13 C           0.1789    2.2531   20.7068 C.ar    1  UNL1        0.2241
     14 C          -0.4608    2.9402   21.8767 C.ar    1  UNL1        0.1761
     15 CL         -0.2933    2.5648   23.3193 Cl      1  UNL1       -0.0582
     16 N          -1.2976    4.0685   21.3507 N.ar    1  UNL1       -0.2075
     17 C          -1.1749    4.0788   19.8558 C.ar    1  UNL1        0.1813
     18 S          -1.6163    4.7825   18.6069 S.2     1  UNL1       -0.0479
     19 C          -0.9765    4.0954   17.4370 C.ar    1  UNL1        0.0574
     20 C          -0.1398    2.9671   17.9630 C.ar    1  UNL1        0.0903
     21 N          -0.2624    2.9568   19.4578 N.ar    1  UNL1       -0.2665
     22 C           3.9507   -3.1579   19.4063 C.3     1  UNL1        0.0448
     23 N           4.7494   -2.0802   17.1812 N.3     1  UNL1       -0.3209
     24 C           5.0505   -2.8473   18.4346 C.3     1  UNL1        0.0699
     25 H           5.6067   -1.9603   16.6417 H       1  UNL1        0.1189
     26 H           4.3706   -1.1651   17.4254 H       1  UNL1        0.1189
@<TRIPOS>BOND
     1    23    24    1
     2    24    22    1
     3    22     1    1
     4     1     2   ar
     5     2     3   ar
     6     3    10    1
     7    10    11    2
     8    10    12    2
     9    10    13    1
    10    13    14   ar
    11    14    15    1
    12    14    16   ar
    13    16    17   ar
    14    17    18   ar
    15    18    19   ar
    16    19    20   ar
    17    20    21   ar
    18     3     4   ar
    19     4     5   ar
    20     5     6   ar
    21     6     7   ar
    22     7     8   ar
    23     8     9   ar
    24     9     1   ar
    25    21    13   ar
    26     9     4   ar
    27    21    17   ar
    28    23    25    1
    29    23    26    1
@<TRIPOS>MOLECULE
*****
 26 29 0 0 0
SMALL
GASTEIGER

@<TRIPOS>ATOM
      1 C           3.2976   -2.0286   20.1669 C.ar    1  UNL1       -0.0004
      2 C           2.3594   -0.9709   19.6659 C.ar    1  UNL1        0.0957
      3 N           1.9986   -0.0860   20.8221 N.ar    1  UNL1       -0.2067
      4 C           2.7137   -0.5969   22.0377 C.ar    1  UNL1        0.0823
      5 C           2.7375   -0.1240   23.4610 C.ar    1  UNL1        0.0189
      6 C           3.5642   -0.8516   24.4793 C.ar    1  UNL1        0.0015
      7 C           4.3670   -2.0522   24.0744 C.ar    1  UNL1        0.0001
      8 C           4.3432   -2.5252   22.6511 C.ar    1  UNL1        0.0012
      9 C           3.5165   -1.7975   21.6328 C.ar    1  UNL1        0.0151
     10 S           1.0833    1.1013   20.7716 S.O2    1  UNL1        0.1038
     11 O          -0.1050    0.1867   20.8047 O.2     1  UNL1       -0.1461
     12 O           2.2716    2.0160   20.7385 O.2     1  UNL1       -0.1461
     13 C           0.1680    2.2887   20.7211 C.ar    1  UNL1        0.2241
     14 C          -0.2784    3.0056   19.4815 C.ar    1  UNL1        0.1761
     15 CL          0.1120    2.6610   18.0748 Cl      1  UNL1       -0.0582
     16 N          -1.1838    4.1275   19.8956 N.ar    1  UNL1       -0.2075
     17 C          -1.2969    4.1041   21.3911 C.ar    1  UNL1        0.1813
     18 S          -1.9263    4.7829   22.5713 S.2     1  UNL1       -0.0479
     19 C          -1.4799    4.0660   23.8109 C.ar    1  UNL1        0.0574
     20 C          -0.5745    2.9440   23.3968 C.ar    1  UNL1        0.0903
     21 N          -0.4614    2.9676   21.9014 N.ar    1  UNL1       -0.2665
     22 C           3.9094   -3.1250   19.3462 C.3     1  UNL1        0.0448
     23 N           4.7132   -2.0019   17.1455 N.3     1  UNL1       -0.3209
     24 C           5.0078   -2.8105   18.3741 C.3     1  UNL1        0.0699
     25 H           5.5685   -1.8852   16.6022 H       1  UNL1        0.1189
     26 H           4.3562   -1.0863   17.4186 H       1  UNL1        0.1189
@<TRIPOS>BOND
     1    23    24    1
     2    24    22    1
     3    22     1    1
     4     1     2   ar
     5     2     3   ar
     6     3    10    1
     7    10    11    2
     8    10    12    2
     9    10    13    1
    10    13    14   ar
    11    14    15    1
    12    14    16   ar
    13    16    17   ar
    14    17    18   ar
    15    18    19   ar
    16    19    20   ar
    17    20    21   ar
    18     3     4   ar
    19     4     5   ar
    20     5     6   ar
    21     6     7   ar
    22     7     8   ar
    23     8     9   ar
    24     9     1   ar
    25    21    13   ar
    26     9     4   ar
    27    21    17   ar
    28    23    25    1
    29    23    26    1
@<TRIPOS>MOLECULE
*****
 26 29 0 0 0
SMALL
GASTEIGER

@<TRIPOS>ATOM
      1 C           6.9147   -4.3324   24.0886 C.ar    1  UNL1       -0.0004
      2 C           6.5410   -3.7763   25.4307 C.ar    1  UNL1        0.0957
      3 N           7.1534   -4.6531   26.4824 N.ar    1  UNL1       -0.2067
      4 C           7.9055   -5.7511   25.7904 C.ar    1  UNL1        0.0823
      5 C           8.7056   -6.9057   26.3163 C.ar    1  UNL1        0.0189
      6 C           9.3582   -7.8621   25.3627 C.ar    1  UNL1        0.0015
      7 C           9.2106   -7.6638   23.8832 C.ar    1  UNL1        0.0001
      8 C           8.4105   -6.5092   23.3573 C.ar    1  UNL1        0.0012
      9 C           7.7579   -5.5528   24.3109 C.ar    1  UNL1        0.0151
     10 S           7.0345   -4.4651   27.9659 S.O2    1  UNL1        0.1038
     11 O           5.8380   -5.3694   27.9847 O.2     1  UNL1       -0.1461
     12 O           8.2310   -3.5607   27.9471 O.2     1  UNL1       -0.1461
     13 C           6.9157   -4.2769   29.4493 C.ar    1  UNL1        0.2241
     14 C           7.4006   -5.2307   30.5005 C.ar    1  UNL1        0.1761
     15 CL          8.0895   -6.5400   30.2530 Cl      1  UNL1       -0.0582
     16 N           7.0758   -4.6453   31.8428 N.ar    1  UNL1       -0.2075
     17 C           6.3901   -3.3297   31.6212 C.ar    1  UNL1        0.1813
     18 S           5.7656   -2.1549   32.3137 S.2     1  UNL1       -0.0479
     19 C           5.2807   -1.2012   31.2625 C.ar    1  UNL1        0.0574
     20 C           5.6055   -1.7866   29.9202 C.ar    1  UNL1        0.0903
     21 N           6.2912   -3.1021   30.1419 N.ar    1  UNL1       -0.2665
     22 C           6.5152   -3.7672   22.7578 C.3     1  UNL1        0.0448
     23 N           4.5889   -4.3318   21.1082 N.3     1  UNL1       -0.3209
     24 C           5.0656   -3.6931   22.3790 C.3     1  UNL1        0.0699
     25 H           3.5843   -4.1853   21.0101 H       1  UNL1        0.1189
     26 H           4.7856   -5.3323   21.1359 H       1  UNL1        0.1189
@<TRIPOS>BOND
     1    23    24    1
     2    24    22    1
     3    22     1    1
     4     1     2   ar
     5     2     3   ar
     6     3    10    1
     7    10    11    2
     8    10    12    2
     9    10    13    1
    10    13    14   ar
    11    14    15    1
    12    14    16   ar
    13    16    17   ar
    14    17    18   ar
    15    18    19   ar
    16    19    20   ar
    17    20    21   ar
    18     3     4   ar
    19     4     5   ar
    20     5     6   ar
    21     6     7   ar
    22     7     8   ar
    23     8     9   ar
    24     9     1   ar
    25    21    13   ar
    26     9     4   ar
    27    21    17   ar
    28    23    25    1
    29    23    26    1
