@<TRIPOS>MOLECULE
*****
 24 27 0 0 0
SMALL
GASTEIGER

@<TRIPOS>ATOM
      1 C         -10.9607  -17.4266   22.7056 C.ar    1  UNL1        0.0380
      2 C         -11.2773  -18.2939   23.8877 C.ar    1  UNL1        0.0026
      3 C         -10.2511  -18.5016   24.9618 C.ar    1  UNL1        0.0189
      4 C          -8.9082  -17.8421   24.8537 C.ar    1  UNL1        0.0826
      5 N          -8.5917  -16.9748   23.6716 N.ar    1  UNL1       -0.2759
      6 C          -7.3633  -16.2005   23.2950 C.ar    1  UNL1        0.1501
      7 N          -7.6304  -15.5143   21.9882 N.ar    1  UNL1       -0.1327
      8 N          -9.0238  -15.8645   21.5571 N.ar    1  UNL1       -0.1290
      9 C          -9.6179  -16.7671   22.5975 C.ar    1  UNL1        0.1682
     10 C         -11.4645  -18.4197   20.9000 C.3     1  UNL1        0.0340
     11 C         -11.9870  -17.2189   21.6315 C.3     1  UNL1        0.1100
     12 C         -12.5095  -16.0181   22.3629 C.3     1  UNL1        0.0340
     13 O         -13.0132  -17.0112   20.5574 O.3     1  UNL1       -0.3826
     14 H         -13.4045  -17.8650   20.3146 H       1  UNL1        0.2107
     15 C          -6.0913  -16.1257   24.0863 C.3     1  UNL1        0.0716
     16 C          -5.1108  -15.7101   25.1428 C.3     1  UNL1        0.0120
     17 C          -6.4891  -15.1186   25.1245 C.3     1  UNL1        0.0120
     18 C          -5.2516  -17.1067   23.3231 C.ar    1  UNL1       -0.0160
     19 C          -5.9000  -18.2649   22.6246 C.ar    1  UNL1       -0.0030
     20 C          -5.0603  -19.2460   21.8614 C.ar    1  UNL1        0.0111
     21 C          -3.5722  -19.0687   21.7967 C.ar    1  UNL1        0.0577
     22 CL         -2.7325  -20.0498   21.0335 Cl      1  UNL1       -0.0822
     23 C          -2.9238  -17.9105   22.4953 C.ar    1  UNL1        0.0111
     24 C          -3.7635  -16.9294   23.2586 C.ar    1  UNL1       -0.0030
@<TRIPOS>BOND
     1    10    11    1
     2    11    12    1
     3    11    13    1
     4    11     1    1
     5     1     2   ar
     6     2     3   ar
     7     3     4   ar
     8     4     5   ar
     9     5     6   ar
    10     6    15    1
    11    15    18    1
    12    18    19   ar
    13    19    20   ar
    14    20    21   ar
    15    21    22    1
    16    21    23   ar
    17    23    24   ar
    18    15    16    1
    19    16    17    1
    20     6     7   ar
    21     7     8   ar
    22     8     9   ar
    23     9     1   ar
    24     9     5   ar
    25    17    15    1
    26    24    18   ar
    27    13    14    1
@<TRIPOS>MOLECULE
*****
 24 27 0 0 0
SMALL
GASTEIGER

@<TRIPOS>ATOM
      1 C          -4.3205  -19.2568   20.8997 C.ar    1  UNL1        0.0380
      2 C          -4.3927  -20.5254   20.1026 C.ar    1  UNL1        0.0026
      3 C          -5.6625  -21.3234   20.0763 C.ar    1  UNL1        0.0189
      4 C          -6.8602  -20.8527   20.8471 C.ar    1  UNL1        0.0826
      5 N          -6.7879  -19.5841   21.6442 N.ar    1  UNL1       -0.2759
      6 C          -7.7983  -18.8756   22.4969 C.ar    1  UNL1        0.1501
      7 N          -7.1529  -17.6398   23.0503 N.ar    1  UNL1       -0.1327
      8 N          -5.7437  -17.5845   22.5395 N.ar    1  UNL1       -0.1290
      9 C          -5.5181  -18.7861   21.6704 C.ar    1  UNL1        0.1682
     10 C          -3.2276  -18.1294   19.4733 C.3     1  UNL1        0.0340
     11 C          -3.0506  -18.4588   20.9259 C.3     1  UNL1        0.1100
     12 C          -2.8736  -18.7882   22.3786 C.3     1  UNL1        0.0340
     13 O          -1.7807  -17.6608   20.9522 O.3     1  UNL1       -0.3826
     14 H          -1.9111  -16.8297   20.4693 H       1  UNL1        0.2107
     15 C          -9.2068  -19.3243   22.7517 C.3     1  UNL1        0.0716
     16 C         -10.3582  -20.0986   23.3214 C.3     1  UNL1        0.0120
     17 C          -8.9559  -20.4179   23.7473 C.3     1  UNL1        0.0120
     18 C          -9.9469  -18.3866   21.8446 C.ar    1  UNL1       -0.0160
     19 C         -10.3448  -17.0261   22.3354 C.ar    1  UNL1       -0.0030
     20 C         -11.0850  -16.0884   21.4284 C.ar    1  UNL1        0.0111
     21 C         -11.4272  -16.5111   20.0304 C.ar    1  UNL1        0.0577
     22 CL        -12.1674  -15.5734   19.1233 Cl      1  UNL1       -0.0822
     23 C         -11.0294  -17.8716   19.5395 C.ar    1  UNL1        0.0111
     24 C         -10.2892  -18.8093   20.4467 C.ar    1  UNL1       -0.0030
@<TRIPOS>BOND
     1    10    11    1
     2    11    12    1
     3    11    13    1
     4    11     1    1
     5     1     2   ar
     6     2     3   ar
     7     3     4   ar
     8     4     5   ar
     9     5     6   ar
    10     6    15    1
    11    15    18    1
    12    18    19   ar
    13    19    20   ar
    14    20    21   ar
    15    21    22    1
    16    21    23   ar
    17    23    24   ar
    18    15    16    1
    19    16    17    1
    20     6     7   ar
    21     7     8   ar
    22     8     9   ar
    23     9     1   ar
    24     9     5   ar
    25    17    15    1
    26    24    18   ar
    27    13    14    1
@<TRIPOS>MOLECULE
*****
 24 27 0 0 0
SMALL
GASTEIGER

@<TRIPOS>ATOM
      1 C          -9.8635  -17.7154   21.2095 C.ar    1  UNL1        0.0380
      2 C         -10.6426  -18.4464   20.1566 C.ar    1  UNL1        0.0026
      3 C          -9.9753  -19.5043   19.3287 C.ar    1  UNL1        0.0189
      4 C          -8.5288  -19.8313   19.5536 C.ar    1  UNL1        0.0826
      5 N          -7.7496  -19.1003   20.6065 N.ar    1  UNL1       -0.2759
      6 C          -6.3212  -19.2053   21.0523 C.ar    1  UNL1        0.1501
      7 N          -6.1058  -18.2123   22.1557 N.ar    1  UNL1       -0.1327
      8 N          -7.4010  -17.4936   22.3919 N.ar    1  UNL1       -0.1290
      9 C          -8.4170  -18.0424   21.4344 C.ar    1  UNL1        0.1682
     10 C         -10.7749  -17.6621   23.1243 C.3     1  UNL1        0.0340
     11 C         -10.5309  -16.6575   22.0374 C.3     1  UNL1        0.1100
     12 C         -10.2868  -15.6530   20.9505 C.3     1  UNL1        0.0340
     13 O         -11.1982  -15.5996   22.8653 O.3     1  UNL1       -0.3826
     14 H         -10.8980  -15.6714   23.7849 H       1  UNL1        0.2107
     15 C          -5.2895  -20.1394   20.4929 C.3     1  UNL1        0.0716
     16 C          -4.6709  -21.3906   19.9434 C.3     1  UNL1        0.0120
     17 C          -6.1208  -21.3770   20.3274 C.3     1  UNL1        0.0120
     18 C          -4.0998  -19.2263   20.4640 C.ar    1  UNL1       -0.0160
     19 C          -3.1914  -19.1403   21.6546 C.ar    1  UNL1       -0.0030
     20 C          -2.0017  -18.2272   21.6258 C.ar    1  UNL1        0.0111
     21 C          -1.7204  -17.4001   20.4064 C.ar    1  UNL1        0.0577
     22 CL         -0.5307  -16.4870   20.3775 Cl      1  UNL1       -0.0822
     23 C          -2.6288  -17.4861   19.2158 C.ar    1  UNL1        0.0111
     24 C          -3.8185  -18.3993   19.2447 C.ar    1  UNL1       -0.0030
@<TRIPOS>BOND
     1    10    11    1
     2    11    12    1
     3    11    13    1
     4    11     1    1
     5     1     2   ar
     6     2     3   ar
     7     3     4   ar
     8     4     5   ar
     9     5     6   ar
    10     6    15    1
    11    15    18    1
    12    18    19   ar
    13    19    20   ar
    14    20    21   ar
    15    21    22    1
    16    21    23   ar
    17    23    24   ar
    18    15    16    1
    19    16    17    1
    20     6     7   ar
    21     7     8   ar
    22     8     9   ar
    23     9     1   ar
    24     9     5   ar
    25    17    15    1
    26    24    18   ar
    27    13    14    1
@<TRIPOS>MOLECULE
*****
 24 27 0 0 0
SMALL
GASTEIGER

@<TRIPOS>ATOM
      1 C          -4.1268  -18.9332   21.5127 C.ar    1  UNL1        0.0380
      2 C          -3.6530  -20.1982   20.8606 C.ar    1  UNL1        0.0026
      3 C          -4.6282  -21.0815   20.1402 C.ar    1  UNL1        0.0189
      4 C          -6.0772  -20.6997   20.0720 C.ar    1  UNL1        0.0826
      5 N          -6.5510  -19.4347   20.7241 N.ar    1  UNL1       -0.2759
      6 C          -7.9081  -18.8034   20.8222 C.ar    1  UNL1        0.1501
      7 N          -7.7717  -17.5300   21.6031 N.ar    1  UNL1       -0.1327
      8 N          -6.3302  -17.3743   21.9877 N.ar    1  UNL1       -0.1290
      9 C          -5.5758  -18.5515   21.4445 C.ar    1  UNL1        0.1682
     10 C          -2.4694  -17.7430   20.9330 C.3     1  UNL1        0.0340
     11 C          -3.1516  -18.0500   22.2331 C.3     1  UNL1        0.1100
     12 C          -3.8339  -18.3571   23.5332 C.3     1  UNL1        0.0340
     13 O          -2.1764  -17.1668   22.9535 O.3     1  UNL1       -0.3826
     14 H          -2.0453  -16.3498   22.4474 H       1  UNL1        0.2107
     15 C          -9.1786  -19.3496   20.2412 C.3     1  UNL1        0.0716
     16 C         -10.1284  -19.9625   19.2552 C.3     1  UNL1        0.0120
     17 C          -8.6965  -19.7313   18.8730 C.3     1  UNL1        0.0120
     18 C         -10.1020  -19.1576   21.4076 C.ar    1  UNL1       -0.0160
     19 C          -9.8297  -19.8620   22.7036 C.ar    1  UNL1       -0.0030
     20 C         -10.7531  -19.6700   23.8700 C.ar    1  UNL1        0.0111
     21 C         -11.9488  -18.7737   23.7403 C.ar    1  UNL1        0.0577
     22 CL        -12.8723  -18.5817   24.9066 Cl      1  UNL1       -0.0822
     23 C         -12.2212  -18.0693   22.4442 C.ar    1  UNL1        0.0111
     24 C         -11.2977  -18.2613   21.2778 C.ar    1  UNL1       -0.0030
@<TRIPOS>BOND
     1    10    11    1
     2    11    12    1
     3    11    13    1
     4    11     1    1
     5     1     2   ar
     6     2     3   ar
     7     3     4   ar
     8     4     5   ar
     9     5     6   ar
    10     6    15    1
    11    15    18    1
    12    18    19   ar
    13    19    20   ar
    14    20    21   ar
    15    21    22    1
    16    21    23   ar
    17    23    24   ar
    18    15    16    1
    19    16    17    1
    20     6     7   ar
    21     7     8   ar
    22     8     9   ar
    23     9     1   ar
    24     9     5   ar
    25    17    15    1
    26    24    18   ar
    27    13    14    1
@<TRIPOS>MOLECULE
*****
 24 27 0 0 0
SMALL
GASTEIGER

@<TRIPOS>ATOM
      1 C          -3.7849  -18.3910   21.3243 C.ar    1  UNL1        0.0380
      2 C          -3.5253  -17.4495   22.4627 C.ar    1  UNL1        0.0026
      3 C          -4.6104  -17.1565   23.4560 C.ar    1  UNL1        0.0189
      4 C          -5.9551  -17.8050   23.3109 C.ar    1  UNL1        0.0826
      5 N          -6.2148  -18.7465   22.1725 N.ar    1  UNL1       -0.2759
      6 C          -7.4310  -19.5290   21.7746 C.ar    1  UNL1        0.1501
      7 N          -7.0977  -20.3057   20.5353 N.ar    1  UNL1       -0.1327
      8 N          -5.6753  -20.0031   20.1674 N.ar    1  UNL1       -0.1290
      9 C          -5.1297  -19.0395   21.1791 C.ar    1  UNL1        0.1682
     10 C          -3.2340  -17.6099   19.4305 C.3     1  UNL1        0.0340
     11 C          -2.6998  -18.6841   20.3310 C.3     1  UNL1        0.1100
     12 C          -2.1656  -19.7583   21.2314 C.3     1  UNL1        0.0340
     13 O          -1.6147  -18.9771   19.3376 O.3     1  UNL1       -0.3826
     14 H          -1.2468  -18.1434   19.0053 H       1  UNL1        0.2107
     15 C          -8.7493  -19.5340   22.4903 C.3     1  UNL1        0.0716
     16 C          -9.8068  -19.8860   23.4941 C.3     1  UNL1        0.0120
     17 C          -8.4566  -20.5350   23.5685 C.3     1  UNL1        0.0120
     18 C          -9.4998  -18.5347   21.6607 C.ar    1  UNL1       -0.0160
     19 C         -10.3076  -18.9935   20.4829 C.ar    1  UNL1       -0.0030
     20 C         -11.0581  -17.9943   19.6534 C.ar    1  UNL1        0.0111
     21 C         -11.0010  -16.5363   20.0016 C.ar    1  UNL1        0.0577
     22 CL        -11.7516  -15.5371   19.1721 Cl      1  UNL1       -0.0822
     23 C         -10.1933  -16.0776   21.1794 C.ar    1  UNL1        0.0111
     24 C          -9.4427  -17.0769   22.0090 C.ar    1  UNL1       -0.0030
@<TRIPOS>BOND
     1    10    11    1
     2    11    12    1
     3    11    13    1
     4    11     1    1
     5     1     2   ar
     6     2     3   ar
     7     3     4   ar
     8     4     5   ar
     9     5     6   ar
    10     6    15    1
    11    15    18    1
    12    18    19   ar
    13    19    20   ar
    14    20    21   ar
    15    21    22    1
    16    21    23   ar
    17    23    24   ar
    18    15    16    1
    19    16    17    1
    20     6     7   ar
    21     7     8   ar
    22     8     9   ar
    23     9     1   ar
    24     9     5   ar
    25    17    15    1
    26    24    18   ar
    27    13    14    1
@<TRIPOS>MOLECULE
*****
 24 27 0 0 0
SMALL
GASTEIGER

@<TRIPOS>ATOM
      1 C          -4.4061  -19.0271   21.4098 C.ar    1  UNL1        0.0380
      2 C          -3.3392  -18.8614   22.4511 C.ar    1  UNL1        0.0026
      3 C          -3.6033  -18.0270   23.6693 C.ar    1  UNL1        0.0189
      4 C          -4.9342  -17.3582   23.8462 C.ar    1  UNL1        0.0826
      5 N          -6.0011  -17.5238   22.8049 N.ar    1  UNL1       -0.2759
      6 C          -7.3993  -16.9897   22.7067 C.ar    1  UNL1        0.1501
      7 N          -7.9994  -17.4941   21.4279 N.ar    1  UNL1       -0.1327
      8 N          -6.9721  -18.3399   20.7357 N.ar    1  UNL1       -0.1290
      9 C          -5.7370  -18.3583   21.5867 C.ar    1  UNL1        0.1682
     10 C          -3.1088  -18.8730   19.7385 C.3     1  UNL1        0.0340
     11 C          -4.1420  -19.8615   20.1916 C.3     1  UNL1        0.1100
     12 C          -5.1752  -20.8500   20.6448 C.3     1  UNL1        0.0340
     13 O          -3.8780  -20.6959   18.9734 O.3     1  UNL1       -0.3826
     14 H          -2.9215  -20.7547   18.8229 H       1  UNL1        0.2107
     15 C          -8.0782  -16.1064   23.7111 C.3     1  UNL1        0.0716
     16 C          -8.2723  -15.0342   24.7420 C.3     1  UNL1        0.0120
     17 C          -6.9180  -15.2560   24.1365 C.3     1  UNL1        0.0120
     18 C          -9.4742  -16.6499   23.6346 C.ar    1  UNL1       -0.0160
     19 C         -10.5063  -15.9513   22.7999 C.ar    1  UNL1       -0.0030
     20 C         -11.9023  -16.4948   22.7234 C.ar    1  UNL1        0.0111
     21 C         -12.2661  -17.7370   23.4816 C.ar    1  UNL1        0.0577
     22 CL        -13.6620  -18.2805   23.4050 Cl      1  UNL1       -0.0822
     23 C         -11.2339  -18.4356   24.3162 C.ar    1  UNL1        0.0111
     24 C          -9.8379  -17.8920   24.3927 C.ar    1  UNL1       -0.0030
@<TRIPOS>BOND
     1    10    11    1
     2    11    12    1
     3    11    13    1
     4    11     1    1
     5     1     2   ar
     6     2     3   ar
     7     3     4   ar
     8     4     5   ar
     9     5     6   ar
    10     6    15    1
    11    15    18    1
    12    18    19   ar
    13    19    20   ar
    14    20    21   ar
    15    21    22    1
    16    21    23   ar
    17    23    24   ar
    18    15    16    1
    19    16    17    1
    20     6     7   ar
    21     7     8   ar
    22     8     9   ar
    23     9     1   ar
    24     9     5   ar
    25    17    15    1
    26    24    18   ar
    27    13    14    1
@<TRIPOS>MOLECULE
*****
 24 27 0 0 0
SMALL
GASTEIGER

@<TRIPOS>ATOM
      1 C          -6.0713  -16.6626   23.4348 C.ar    1  UNL1        0.0380
      2 C          -6.7381  -15.3191   23.4223 C.ar    1  UNL1        0.0026
      3 C          -8.0133  -15.1217   22.6576 C.ar    1  UNL1        0.0189
      4 C          -8.6219  -16.2680   21.9055 C.ar    1  UNL1        0.0826
      5 N          -7.9552  -17.6115   21.9180 N.ar    1  UNL1       -0.2759
      6 C          -8.3173  -18.9178   21.2756 C.ar    1  UNL1        0.1501
      7 N          -7.2659  -19.9224   21.6433 N.ar    1  UNL1       -0.1327
      8 N          -6.2539  -19.2371   22.5129 N.ar    1  UNL1       -0.1290
      9 C          -6.6799  -17.8089   22.6827 C.ar    1  UNL1        0.1682
     10 C          -5.3731  -16.1013   25.3577 C.3     1  UNL1        0.0340
     11 C          -4.7961  -16.8600   24.1995 C.3     1  UNL1        0.1100
     12 C          -4.2190  -17.6187   23.0413 C.3     1  UNL1        0.0340
     13 O          -3.5208  -17.0573   24.9642 O.3     1  UNL1       -0.3826
     14 H          -3.7274  -17.2979   25.8808 H       1  UNL1        0.2107
     15 C          -9.5198  -19.1743   20.4164 C.3     1  UNL1        0.0716
     16 C         -10.3431  -19.5397   19.2170 C.3     1  UNL1        0.0120
     17 C          -8.8456  -19.5770   19.1383 C.3     1  UNL1        0.0120
     18 C         -10.6116  -18.8607   21.3960 C.ar    1  UNL1       -0.0160
     19 C         -10.5512  -19.4143   22.7889 C.ar    1  UNL1       -0.0030
     20 C         -11.6430  -19.1007   23.7685 C.ar    1  UNL1        0.0111
     21 C         -12.7951  -18.2336   23.3553 C.ar    1  UNL1        0.0577
     22 CL        -13.8869  -17.9200   24.3349 Cl      1  UNL1       -0.0822
     23 C         -12.8555  -17.6800   21.9624 C.ar    1  UNL1        0.0111
     24 C         -11.7636  -17.9936   20.9828 C.ar    1  UNL1       -0.0030
@<TRIPOS>BOND
     1    10    11    1
     2    11    12    1
     3    11    13    1
     4    11     1    1
     5     1     2   ar
     6     2     3   ar
     7     3     4   ar
     8     4     5   ar
     9     5     6   ar
    10     6    15    1
    11    15    18    1
    12    18    19   ar
    13    19    20   ar
    14    20    21   ar
    15    21    22    1
    16    21    23   ar
    17    23    24   ar
    18    15    16    1
    19    16    17    1
    20     6     7   ar
    21     7     8   ar
    22     8     9   ar
    23     9     1   ar
    24     9     5   ar
    25    17    15    1
    26    24    18   ar
    27    13    14    1
@<TRIPOS>MOLECULE
*****
 24 27 0 0 0
SMALL
GASTEIGER

@<TRIPOS>ATOM
      1 C         -15.6173   -7.0092   17.8664 C.ar    1  UNL1        0.0380
      2 C         -16.0361   -6.3168   19.1293 C.ar    1  UNL1        0.0026
      3 C         -15.0034   -5.6913   20.0195 C.ar    1  UNL1        0.0189
      4 C         -13.5521   -5.7582   19.6467 C.ar    1  UNL1        0.0826
      5 N         -13.1334   -6.4506   18.3837 N.ar    1  UNL1       -0.2759
      6 C         -11.7874   -6.6743   17.7606 C.ar    1  UNL1        0.1501
      7 N         -11.9881   -7.4381   16.4853 N.ar    1  UNL1       -0.1327
      8 N         -13.4582   -7.6864   16.3203 N.ar    1  UNL1       -0.1290
      9 C         -14.1660   -7.0762   17.4936 C.ar    1  UNL1        0.1682
     10 C         -16.7636   -6.3522   16.2068 C.3     1  UNL1        0.0340
     11 C         -16.6500   -7.6348   16.9762 C.3     1  UNL1        0.1100
     12 C         -16.5363   -8.9173   17.7456 C.3     1  UNL1        0.0340
     13 O         -17.6826   -8.2603   16.0860 O.3     1  UNL1       -0.3826
     14 H         -17.5032   -8.0193   15.1637 H       1  UNL1        0.2107
     15 C         -10.4716   -6.2149   18.3153 C.3     1  UNL1        0.0716
     16 C          -9.1561   -6.2496   19.0352 C.3     1  UNL1        0.0120
     17 C         -10.0153   -7.4780   18.9835 C.3     1  UNL1        0.0120
     18 C         -10.4710   -4.7922   17.8399 C.ar    1  UNL1       -0.0160
     19 C          -9.9596   -4.4596   16.4696 C.ar    1  UNL1       -0.0030
     20 C          -9.9590   -3.0370   15.9942 C.ar    1  UNL1        0.0111
     21 C         -10.4697   -1.9469   16.8892 C.ar    1  UNL1        0.0577
     22 CL        -10.4690   -0.5243   16.4138 Cl      1  UNL1       -0.0822
     23 C         -10.9811   -2.2795   18.2596 C.ar    1  UNL1        0.0111
     24 C         -10.9817   -3.7023   18.7349 C.ar    1  UNL1       -0.0030
@<TRIPOS>BOND
     1    10    11    1
     2    11    12    1
     3    11    13    1
     4    11     1    1
     5     1     2   ar
     6     2     3   ar
     7     3     4   ar
     8     4     5   ar
     9     5     6   ar
    10     6    15    1
    11    15    18    1
    12    18    19   ar
    13    19    20   ar
    14    20    21   ar
    15    21    22    1
    16    21    23   ar
    17    23    24   ar
    18    15    16    1
    19    16    17    1
    20     6     7   ar
    21     7     8   ar
    22     8     9   ar
    23     9     1   ar
    24     9     5   ar
    25    17    15    1
    26    24    18   ar
    27    13    14    1
@<TRIPOS>MOLECULE
*****
 24 27 0 0 0
SMALL
GASTEIGER

@<TRIPOS>ATOM
      1 C         -15.6412   -7.4137   18.5540 C.ar    1  UNL1        0.0380
      2 C         -15.4329   -8.1940   17.2900 C.ar    1  UNL1        0.0026
      3 C         -14.1586   -8.0389   16.5142 C.ar    1  UNL1        0.0189
      4 C         -13.0924   -7.1035   17.0024 C.ar    1  UNL1        0.0826
      5 N         -13.3007   -6.3232   18.2664 N.ar    1  UNL1       -0.2759
      6 C         -12.4358   -5.3332   18.9888 C.ar    1  UNL1        0.1501
      7 N         -13.1756   -4.8764   20.2111 N.ar    1  UNL1       -0.1327
      8 N         -14.4977   -5.5842   20.2441 N.ar    1  UNL1       -0.1290
      9 C         -14.5750   -6.4783   19.0422 C.ar    1  UNL1        0.1682
     10 C         -16.3456   -8.7691   20.0260 C.3     1  UNL1        0.0340
     11 C         -16.9155   -7.5688   19.3299 C.3     1  UNL1        0.1100
     12 C         -17.4855   -6.3686   18.6337 C.3     1  UNL1        0.0340
     13 O         -18.1899   -7.7239   20.1057 O.3     1  UNL1       -0.3826
     14 H         -17.9823   -7.9193   21.0329 H       1  UNL1        0.2107
     15 C         -11.0708   -4.8796   18.5635 C.3     1  UNL1        0.0716
     16 C          -9.5884   -4.8940   18.3347 C.3     1  UNL1        0.0120
     17 C         -10.2588   -6.0696   18.9815 C.3     1  UNL1        0.0120
     18 C         -11.4085   -3.5320   17.9978 C.ar    1  UNL1       -0.0160
     19 C         -12.0285   -3.4242   16.6362 C.ar    1  UNL1       -0.0030
     20 C         -12.3663   -2.0766   16.0706 C.ar    1  UNL1        0.0111
     21 C         -12.0840   -0.8369   16.8665 C.ar    1  UNL1        0.0577
     22 CL        -12.4218    0.5106   16.3009 Cl      1  UNL1       -0.0822
     23 C         -11.4640   -0.9448   18.2282 C.ar    1  UNL1        0.0111
     24 C         -11.1263   -2.2924   18.7938 C.ar    1  UNL1       -0.0030
@<TRIPOS>BOND
     1    10    11    1
     2    11    12    1
     3    11    13    1
     4    11     1    1
     5     1     2   ar
     6     2     3   ar
     7     3     4   ar
     8     4     5   ar
     9     5     6   ar
    10     6    15    1
    11    15    18    1
    12    18    19   ar
    13    19    20   ar
    14    20    21   ar
    15    21    22    1
    16    21    23   ar
    17    23    24   ar
    18    15    16    1
    19    16    17    1
    20     6     7   ar
    21     7     8   ar
    22     8     9   ar
    23     9     1   ar
    24     9     5   ar
    25    17    15    1
    26    24    18   ar
    27    13    14    1
