@<TRIPOS>MOLECULE
*****
 34 39 0 0 0
SMALL
GASTEIGER

@<TRIPOS>ATOM
      1 C           0.1932    1.9720   22.5343 C.ar    1  UNL1        0.1074
      2 C           0.1535    2.1522   24.0229 C.ar    1  UNL1        0.0588
      3 S          -0.8264    3.2451   24.3315 S.2     1  UNL1       -0.0508
      4 C          -1.3923    3.7403   23.0336 C.ar    1  UNL1        0.1646
      5 N          -0.7621    2.9535   21.9229 N.ar    1  UNL1       -0.2224
      6 C           3.2050   -0.4409   21.6081 C.ar    1  UNL1        0.2416
      7 N           2.3585    0.5474   22.3543 N.ar    1  UNL1       -0.2089
      8 C           1.0397    0.9837   21.7881 C.ar    1  UNL1        0.1026
      9 C           0.5675    0.4318   20.4758 C.ar    1  UNL1        0.0224
     10 C           1.4140   -0.5566   19.7296 C.ar    1  UNL1        0.0239
     11 C           2.7328   -0.9928   20.2958 C.ar    1  UNL1        0.1189
     12 N           3.5792   -1.9811   19.5496 N.ar    1  UNL1       -0.2826
     13 C           4.6074   -1.6522   18.5080 C.ar    1  UNL1        0.1826
     14 N           5.2098   -2.9395   18.0287 N.ar    1  UNL1       -0.2280
     15 C           4.5540   -4.0641   18.7740 C.ar    1  UNL1        0.0786
     16 C           4.8533   -5.5245   18.6083 C.3     1  UNL1        0.0538
     17 C           3.5462   -3.4716   19.7140 C.ar    1  UNL1        0.0963
     18 C           4.6039   -2.1105   23.0242 C.3     1  UNL1        0.2543
     19 O           4.5237   -0.8771   22.1743 O.3     1  UNL1       -0.4551
     20 N          -2.4098    4.8310   22.8744 N.pl3   1  UNL1       -0.2786
     21 H          -2.1696    5.7626   23.0832 H       1  UNL1        0.1555
     22 C          -3.7933    4.5021   22.3971 C.ar    1  UNL1        0.1274
     23 C          -4.1947    4.2296   20.9777 C.ar    1  UNL1        0.0244
     24 C          -5.6677    3.9471   20.9587 C.ar    1  UNL1        0.0773
     25 N          -6.1767    4.0451   22.3663 N.ar    1  UNL1       -0.1730
     26 N          -5.0183    4.3881   23.2553 N.ar    1  UNL1       -0.2402
     27 C          -6.3553    3.6372   19.6621 C.3     1  UNL1        0.0474
     28 C          -5.5698    3.6097   18.3845 C.3     1  UNL1        0.0067
     29 C          -4.0968    3.8922   18.4035 C.3     1  UNL1        0.0052
     30 C          -3.4092    4.2021   19.7001 C.3     1  UNL1        0.0305
     31 C          -5.0748    4.5829   24.7415 C.3     1  UNL1        0.1065
     32 C          -5.8893    5.4349   25.6694 C.3     1  UNL1        0.0245
     33 C          -5.1548    4.8584   26.8433 C.3     1  UNL1        0.0040
     34 C          -4.3403    4.0064   25.9155 C.3     1  UNL1        0.0245
@<TRIPOS>BOND
     1    18    19    1
     2    19     6    1
     3     6     7   ar
     4     7     8   ar
     5     8     1    1
     6     1     2   ar
     7     2     3   ar
     8     3     4   ar
     9     4    20    1
    10    20    22    1
    11    22    23   ar
    12    23    24   ar
    13    24    25   ar
    14    25    26   ar
    15    26    31    1
    16    31    32    1
    17    32    33    1
    18    33    34    1
    19    24    27    1
    20    27    28    1
    21    28    29    1
    22    29    30    1
    23     4     5   ar
    24     8     9   ar
    25     9    10   ar
    26    10    11   ar
    27    11    12    1
    28    12    13   ar
    29    13    14   ar
    30    14    15   ar
    31    15    16    1
    32    15    17   ar
    33    11     6   ar
    34    17    12   ar
    35     5     1   ar
    36    26    22   ar
    37    34    31    1
    38    30    23    1
    39    20    21    1
@<TRIPOS>MOLECULE
*****
 34 39 0 0 0
SMALL
GASTEIGER

@<TRIPOS>ATOM
      1 C           0.0374    2.3049   19.1458 C.ar    1  UNL1        0.1074
      2 C          -0.2445    3.0570   17.8791 C.ar    1  UNL1        0.0588
      3 S          -1.2453    4.1302   18.1901 S.2     1  UNL1       -0.0508
      4 C          -1.5819    4.0413   19.6492 C.ar    1  UNL1        0.1646
      5 N          -0.7891    2.9132   20.2398 N.ar    1  UNL1       -0.2224
      6 C           2.9255   -0.3021   18.3628 C.ar    1  UNL1        0.2416
      7 N           1.9826    0.8553   18.2157 N.ar    1  UNL1       -0.2089
      8 C           0.9803    1.1476   19.2928 C.ar    1  UNL1        0.1026
      9 C           0.9210    0.2827   20.5169 C.ar    1  UNL1        0.0224
     10 C           1.8640   -0.8746   20.6639 C.ar    1  UNL1        0.0239
     11 C           2.8662   -1.1669   19.5868 C.ar    1  UNL1        0.1189
     12 N           3.8091   -2.3242   19.7338 N.ar    1  UNL1       -0.2826
     13 C           3.5267   -3.7462   19.3484 C.ar    1  UNL1        0.1826
     14 N           4.7429   -4.5635   19.6684 N.ar    1  UNL1       -0.2280
     15 C           5.7773   -3.6467   20.2515 C.ar    1  UNL1        0.0786
     16 C           7.1480   -4.0442   20.7132 C.3     1  UNL1        0.0538
     17 C           5.2000   -2.2628   20.2919 C.ar    1  UNL1        0.0963
     18 C           5.2437    0.1252   17.2704 C.3     1  UNL1        0.2543
     19 O           3.9276   -0.5944   17.2857 O.3     1  UNL1       -0.4551
     20 N          -2.5426    4.9253   20.3879 N.pl3   1  UNL1       -0.2786
     21 H          -2.6679    5.8602   20.1058 H       1  UNL1        0.1555
     22 C          -3.3124    4.3849   21.5564 C.ar    1  UNL1        0.1274
     23 C          -2.7802    4.1791   22.9436 C.ar    1  UNL1        0.0244
     24 C          -3.8884    3.6224   23.7874 C.ar    1  UNL1        0.0773
     25 N          -5.1055    3.4841   22.9216 N.ar    1  UNL1       -0.1730
     26 N          -4.7495    3.9553   21.5427 N.ar    1  UNL1       -0.2402
     27 C          -3.6461    3.3133   25.2350 C.3     1  UNL1        0.0474
     28 C          -2.2956    3.5610   25.8389 C.3     1  UNL1        0.0067
     29 C          -1.1874    4.1177   24.9951 C.3     1  UNL1        0.0052
     30 C          -1.4297    4.4268   23.5475 C.3     1  UNL1        0.0305
     31 C          -5.6692    3.9908   20.3583 C.3     1  UNL1        0.1065
     32 C          -6.8652    4.8078   19.9680 C.3     1  UNL1        0.0245
     33 C          -6.9697    4.0410   18.6832 C.3     1  UNL1        0.0040
     34 C          -5.7738    3.2239   19.0733 C.3     1  UNL1        0.0245
@<TRIPOS>BOND
     1    18    19    1
     2    19     6    1
     3     6     7   ar
     4     7     8   ar
     5     8     1    1
     6     1     2   ar
     7     2     3   ar
     8     3     4   ar
     9     4    20    1
    10    20    22    1
    11    22    23   ar
    12    23    24   ar
    13    24    25   ar
    14    25    26   ar
    15    26    31    1
    16    31    32    1
    17    32    33    1
    18    33    34    1
    19    24    27    1
    20    27    28    1
    21    28    29    1
    22    29    30    1
    23     4     5   ar
    24     8     9   ar
    25     9    10   ar
    26    10    11   ar
    27    11    12    1
    28    12    13   ar
    29    13    14   ar
    30    14    15   ar
    31    15    16    1
    32    15    17   ar
    33    11     6   ar
    34    17    12   ar
    35     5     1   ar
    36    26    22   ar
    37    34    31    1
    38    30    23    1
    39    20    21    1
@<TRIPOS>MOLECULE
*****
 34 39 0 0 0
SMALL
GASTEIGER

@<TRIPOS>ATOM
      1 C         -15.4486   -1.4759   19.4077 C.ar    1  UNL1        0.1074
      2 C         -15.6986   -2.2119   18.1248 C.ar    1  UNL1        0.0588
      3 S         -15.2413   -3.6288   18.3067 S.2     1  UNL1       -0.0508
      4 C         -14.7087   -3.7685   19.7020 C.ar    1  UNL1        0.1646
      5 N         -14.8369   -2.4379   20.3824 N.ar    1  UNL1       -0.2224
      6 C         -15.2809    2.4854   19.2343 C.ar    1  UNL1        0.2416
      7 N         -14.9731    1.0410   18.9721 N.ar    1  UNL1       -0.2089
      8 C         -15.7564   -0.0314   19.6698 C.ar    1  UNL1        0.1026
      9 C         -16.8475    0.3408   20.6294 C.ar    1  UNL1        0.0224
     10 C         -17.1553    1.7854   20.8915 C.ar    1  UNL1        0.0239
     11 C         -16.3719    2.8577   20.1939 C.ar    1  UNL1        0.1189
     12 N         -16.6797    4.3021   20.4560 N.ar    1  UNL1       -0.2826
     13 C         -15.9255    5.2106   21.3813 C.ar    1  UNL1        0.1826
     14 N         -16.5753    6.5617   21.3360 N.ar    1  UNL1       -0.2280
     15 C         -17.7313    6.4884   20.3827 C.ar    1  UNL1        0.0786
     16 C         -18.6597    7.6139   20.0346 C.3     1  UNL1        0.0538
     17 C         -17.7957    5.0918   19.8389 C.ar    1  UNL1        0.0963
     18 C         -14.9170    4.0276   17.1753 C.3     1  UNL1        0.2543
     19 O         -14.4976    3.5577   18.5367 O.3     1  UNL1       -0.4551
     20 N         -14.1467   -5.0193   20.3101 N.pl3   1  UNL1       -0.2786
     21 H         -13.9094   -5.0386   21.2654 H       1  UNL1        0.1555
     22 C         -13.9462   -6.2407   19.4627 C.ar    1  UNL1        0.1274
     23 C         -14.9821   -7.2816   19.1572 C.ar    1  UNL1        0.0244
     24 C         -14.3507   -8.3198   18.2778 C.ar    1  UNL1        0.0773
     25 N         -12.9246   -7.9206   18.0398 N.ar    1  UNL1       -0.1730
     26 N         -12.6745   -6.6356   18.7722 N.ar    1  UNL1       -0.2402
     27 C         -15.1560   -9.4946   17.8073 C.3     1  UNL1        0.0474
     28 C         -16.5927   -9.6311   18.2162 C.3     1  UNL1        0.0067
     29 C         -17.2241   -8.5929   19.0956 C.3     1  UNL1        0.0052
     30 C         -16.4188   -7.4181   19.5661 C.3     1  UNL1        0.0305
     31 C         -11.3801   -5.8785   18.8077 C.3     1  UNL1        0.1065
     32 C         -10.9942   -4.4322   18.7108 C.3     1  UNL1        0.0245
     33 C          -9.5495   -4.8078   18.8580 C.3     1  UNL1        0.0040
     34 C          -9.9353   -6.2541   18.9548 C.3     1  UNL1        0.0245
@<TRIPOS>BOND
     1    18    19    1
     2    19     6    1
     3     6     7   ar
     4     7     8   ar
     5     8     1    1
     6     1     2   ar
     7     2     3   ar
     8     3     4   ar
     9     4    20    1
    10    20    22    1
    11    22    23   ar
    12    23    24   ar
    13    24    25   ar
    14    25    26   ar
    15    26    31    1
    16    31    32    1
    17    32    33    1
    18    33    34    1
    19    24    27    1
    20    27    28    1
    21    28    29    1
    22    29    30    1
    23     4     5   ar
    24     8     9   ar
    25     9    10   ar
    26    10    11   ar
    27    11    12    1
    28    12    13   ar
    29    13    14   ar
    30    14    15   ar
    31    15    16    1
    32    15    17   ar
    33    11     6   ar
    34    17    12   ar
    35     5     1   ar
    36    26    22   ar
    37    34    31    1
    38    30    23    1
    39    20    21    1
@<TRIPOS>MOLECULE
*****
 34 39 0 0 0
SMALL
GASTEIGER

@<TRIPOS>ATOM
      1 C           1.0651    1.0184   22.9338 C.ar    1  UNL1        0.1074
      2 C           2.3335    0.3573   23.3855 C.ar    1  UNL1        0.0588
      3 S           2.9209   -0.3692   22.2119 S.2     1  UNL1       -0.0508
      4 C           2.0155   -0.1569   21.0349 C.ar    1  UNL1        0.1646
      5 N           0.8686    0.7007   21.4811 N.ar    1  UNL1       -0.2224
      6 C          -0.9922    2.3125   26.0711 C.ar    1  UNL1        0.2416
      7 N          -0.0804    1.4796   25.2197 N.ar    1  UNL1       -0.2089
      8 C           0.1533    1.8512   23.7853 C.ar    1  UNL1        0.1026
      9 C          -0.5248    3.0556   23.2024 C.ar    1  UNL1        0.0224
     10 C          -1.4366    3.8884   24.0540 C.ar    1  UNL1        0.0239
     11 C          -1.6703    3.5168   25.4884 C.ar    1  UNL1        0.1189
     12 N          -2.5821    4.3496   26.3399 N.ar    1  UNL1       -0.2826
     13 C          -4.0213    4.0533   26.6418 C.ar    1  UNL1        0.1826
     14 N          -4.5435    5.1454   27.5275 N.ar    1  UNL1       -0.2280
     15 C          -3.4270    6.1168   27.7730 C.ar    1  UNL1        0.0786
     16 C          -3.5085    7.3614   28.6062 C.3     1  UNL1        0.0538
     17 C          -2.2148    5.6248   27.0390 C.ar    1  UNL1        0.0963
     18 C          -0.6953    0.6437   28.0402 C.3     1  UNL1        0.2543
     19 O          -1.2259    1.9409   27.5055 O.3     1  UNL1       -0.4551
     20 N           2.2211   -0.7060   19.6541 N.pl3   1  UNL1       -0.2786
     21 H           1.4930   -1.1928   19.2046 H       1  UNL1        0.1555
     22 C           3.5359   -0.5131   18.9584 C.ar    1  UNL1        0.1274
     23 C           4.1014    0.7944   18.4887 C.ar    1  UNL1        0.0244
     24 C           5.4311    0.5216   17.8502 C.ar    1  UNL1        0.0773
     25 N           5.6872   -0.9544   17.9253 N.ar    1  UNL1       -0.1730
     26 N           4.5160   -1.5940   18.6102 N.ar    1  UNL1       -0.2402
     27 C           6.2367    1.6526   17.2830 C.3     1  UNL1        0.0474
     28 C           5.7128    3.0562   17.3542 C.3     1  UNL1        0.0067
     29 C           4.3831    3.3290   17.9927 C.3     1  UNL1        0.0052
     30 C           3.5775    2.1980   18.5600 C.3     1  UNL1        0.0305
     31 C           4.3533   -3.0574   18.8966 C.3     1  UNL1        0.1065
     32 C           3.1865   -3.9938   19.0042 C.3     1  UNL1        0.0245
     33 C           4.1233   -5.1269   19.3016 C.3     1  UNL1        0.0040
     34 C           5.2902   -4.1905   19.1939 C.3     1  UNL1        0.0245
@<TRIPOS>BOND
     1    18    19    1
     2    19     6    1
     3     6     7   ar
     4     7     8   ar
     5     8     1    1
     6     1     2   ar
     7     2     3   ar
     8     3     4   ar
     9     4    20    1
    10    20    22    1
    11    22    23   ar
    12    23    24   ar
    13    24    25   ar
    14    25    26   ar
    15    26    31    1
    16    31    32    1
    17    32    33    1
    18    33    34    1
    19    24    27    1
    20    27    28    1
    21    28    29    1
    22    29    30    1
    23     4     5   ar
    24     8     9   ar
    25     9    10   ar
    26    10    11   ar
    27    11    12    1
    28    12    13   ar
    29    13    14   ar
    30    14    15   ar
    31    15    16    1
    32    15    17   ar
    33    11     6   ar
    34    17    12   ar
    35     5     1   ar
    36    26    22   ar
    37    34    31    1
    38    30    23    1
    39    20    21    1
@<TRIPOS>MOLECULE
*****
 34 39 0 0 0
SMALL
GASTEIGER

@<TRIPOS>ATOM
      1 C           3.7564   -0.4673   26.9293 C.ar    1  UNL1        0.1074
      2 C           4.2258    0.8558   27.4577 C.ar    1  UNL1        0.0588
      3 S           3.7098    1.0049   28.8583 S.2     1  UNL1       -0.0508
      4 C           2.9216   -0.2259   29.1954 C.ar    1  UNL1        0.1646
      5 N           2.9504   -1.1358   28.0032 N.ar    1  UNL1       -0.2224
      6 C           5.4689   -2.5364   24.0076 C.ar    1  UNL1        0.2416
      7 N           5.1825   -1.9797   25.3707 N.ar    1  UNL1       -0.2089
      8 C           4.0429   -1.0240   25.5663 C.ar    1  UNL1        0.1026
      9 C           3.1897   -0.6252   24.3987 C.ar    1  UNL1        0.0224
     10 C           3.4762   -1.1820   23.0356 C.ar    1  UNL1        0.0239
     11 C           4.6158   -2.1376   22.8401 C.ar    1  UNL1        0.1189
     12 N           4.9022   -2.6944   21.4771 N.ar    1  UNL1       -0.2826
     13 C           5.7692   -2.0603   20.4299 C.ar    1  UNL1        0.1826
     14 N           5.7748   -2.9569   19.2275 N.ar    1  UNL1       -0.2280
     15 C           4.9112   -4.1453   19.5314 C.ar    1  UNL1        0.0786
     16 C           4.6355   -5.2941   18.6073 C.3     1  UNL1        0.0538
     17 C           4.3720   -3.9829   20.9218 C.ar    1  UNL1        0.0963
     18 C           6.8895   -4.5450   24.8427 C.3     1  UNL1        0.2543
     19 O           6.6084   -3.4920   23.8121 O.3     1  UNL1       -0.4551
     20 N           2.2265   -0.4990   30.4964 N.pl3   1  UNL1       -0.2786
     21 H           1.5458   -1.2081   30.5514 H       1  UNL1        0.1555
     22 C           2.5686    0.3083   31.7134 C.ar    1  UNL1        0.1274
     23 C           1.9190    1.5948   32.1293 C.ar    1  UNL1        0.0244
     24 C           2.5693    2.0525   33.4011 C.ar    1  UNL1        0.0773
     25 N           3.6208    1.0489   33.7713 N.ar    1  UNL1       -0.1730
     26 N           3.6204   -0.0291   32.7282 N.ar    1  UNL1       -0.2402
     27 C           2.1199    3.3240   34.0578 C.3     1  UNL1        0.0474
     28 C           1.0202    4.1378   33.4427 C.3     1  UNL1        0.0067
     29 C           0.3699    3.6801   32.1708 C.3     1  UNL1        0.0052
     30 C           0.8193    2.4086   31.5141 C.3     1  UNL1        0.0305
     31 C           4.5148   -1.2330   32.7042 C.3     1  UNL1        0.1065
     32 C           5.8451   -1.5541   32.0898 C.3     1  UNL1        0.0245
     33 C           5.7796   -2.9357   32.6703 C.3     1  UNL1        0.0040
     34 C           4.4494   -2.6147   33.2847 C.3     1  UNL1        0.0245
@<TRIPOS>BOND
     1    18    19    1
     2    19     6    1
     3     6     7   ar
     4     7     8   ar
     5     8     1    1
     6     1     2   ar
     7     2     3   ar
     8     3     4   ar
     9     4    20    1
    10    20    22    1
    11    22    23   ar
    12    23    24   ar
    13    24    25   ar
    14    25    26   ar
    15    26    31    1
    16    31    32    1
    17    32    33    1
    18    33    34    1
    19    24    27    1
    20    27    28    1
    21    28    29    1
    22    29    30    1
    23     4     5   ar
    24     8     9   ar
    25     9    10   ar
    26    10    11   ar
    27    11    12    1
    28    12    13   ar
    29    13    14   ar
    30    14    15   ar
    31    15    16    1
    32    15    17   ar
    33    11     6   ar
    34    17    12   ar
    35     5     1   ar
    36    26    22   ar
    37    34    31    1
    38    30    23    1
    39    20    21    1
@<TRIPOS>MOLECULE
*****
 34 39 0 0 0
SMALL
GASTEIGER

@<TRIPOS>ATOM
      1 C           3.4976   -0.7990   23.3497 C.ar    1  UNL1        0.1074
      2 C           2.4564    0.2800   23.3140 C.ar    1  UNL1        0.0588
      3 S           2.0677    0.5019   21.8823 S.2     1  UNL1       -0.0508
      4 C           2.8688   -0.4402   21.0332 C.ar    1  UNL1        0.1646
      5 N           3.7525   -1.2442   21.9402 N.ar    1  UNL1       -0.2224
      6 C           4.2206   -1.6506   27.1579 C.ar    1  UNL1        0.2416
      7 N           3.5516   -1.1112   25.9285 N.ar    1  UNL1       -0.2089
      8 C           4.1666   -1.3383   24.5792 C.ar    1  UNL1        0.1026
      9 C           5.4504   -2.1047   24.4595 C.ar    1  UNL1        0.0224
     10 C           6.1194   -2.6440   25.6891 C.ar    1  UNL1        0.0239
     11 C           5.5044   -2.4169   27.0383 C.ar    1  UNL1        0.1189
     12 N           6.1734   -2.9562   28.2677 N.ar    1  UNL1       -0.2826
     13 C           6.8557   -2.1441   29.3285 C.ar    1  UNL1        0.1826
     14 N           7.3815   -3.0882   30.3686 N.ar    1  UNL1       -0.2280
     15 C           7.0241   -4.4840   29.9509 C.ar    1  UNL1        0.0786
     16 C           7.3553   -5.7405   30.7001 C.3     1  UNL1        0.0538
     17 C           6.2775   -4.4023   28.6524 C.ar    1  UNL1        0.0963
     18 C           2.4081   -0.5308   28.6448 C.3     1  UNL1        0.2543
     19 O           3.6057   -1.4235   28.5071 O.3     1  UNL1       -0.4551
     20 N           2.7984   -0.5576   19.5394 N.pl3   1  UNL1       -0.2786
     21 H           1.9241   -0.5677   19.0871 H       1  UNL1        0.1555
     22 C           4.0603   -0.6596   18.7349 C.ar    1  UNL1        0.1274
     23 C           4.8061    0.4852   18.1158 C.ar    1  UNL1        0.0244
     24 C           6.0047   -0.0720   17.4065 C.ar    1  UNL1        0.0773
     25 N           5.9996   -1.5610   17.5873 N.ar    1  UNL1       -0.1730
     26 N           4.7979   -1.9242   18.4083 N.ar    1  UNL1       -0.2402
     27 C           6.9458    0.8486   16.6877 C.3     1  UNL1        0.0474
     28 C           6.6884    2.3263   16.6781 C.3     1  UNL1        0.0067
     29 C           5.4899    2.8834   17.3874 C.3     1  UNL1        0.0052
     30 C           4.5487    1.9628   18.1062 C.3     1  UNL1        0.0305
     31 C           4.4031   -3.3089   18.8288 C.3     1  UNL1        0.1065
     32 C           3.1007   -4.0187   19.0523 C.3     1  UNL1        0.0245
     33 C           3.8448   -5.2671   19.4235 C.3     1  UNL1        0.0040
     34 C           5.1472   -4.5573   19.2001 C.3     1  UNL1        0.0245
@<TRIPOS>BOND
     1    18    19    1
     2    19     6    1
     3     6     7   ar
     4     7     8   ar
     5     8     1    1
     6     1     2   ar
     7     2     3   ar
     8     3     4   ar
     9     4    20    1
    10    20    22    1
    11    22    23   ar
    12    23    24   ar
    13    24    25   ar
    14    25    26   ar
    15    26    31    1
    16    31    32    1
    17    32    33    1
    18    33    34    1
    19    24    27    1
    20    27    28    1
    21    28    29    1
    22    29    30    1
    23     4     5   ar
    24     8     9   ar
    25     9    10   ar
    26    10    11   ar
    27    11    12    1
    28    12    13   ar
    29    13    14   ar
    30    14    15   ar
    31    15    16    1
    32    15    17   ar
    33    11     6   ar
    34    17    12   ar
    35     5     1   ar
    36    26    22   ar
    37    34    31    1
    38    30    23    1
    39    20    21    1
@<TRIPOS>MOLECULE
*****
 34 39 0 0 0
SMALL
GASTEIGER

@<TRIPOS>ATOM
      1 C           5.0320   -3.4159   20.9548 C.ar    1  UNL1        0.1074
      2 C           4.1813   -4.3927   20.1984 C.ar    1  UNL1        0.0588
      3 S           3.8058   -3.7637   18.8894 S.2     1  UNL1       -0.0508
      4 C           4.4244   -2.3983   18.8369 C.ar    1  UNL1        0.1646
      5 N           5.1823   -2.1833   20.1133 N.ar    1  UNL1       -0.2224
      6 C           7.3238   -4.8539   23.8582 C.ar    1  UNL1        0.2416
      7 N           6.7280   -4.6363   22.4989 N.ar    1  UNL1       -0.2089
      8 C           5.6278   -3.6336   22.3140 C.ar    1  UNL1        0.1026
      9 C           5.1235   -2.8485   23.4885 C.ar    1  UNL1        0.0224
     10 C           5.7194   -3.0662   24.8478 C.ar    1  UNL1        0.0239
     11 C           6.8196   -4.0689   25.0326 C.ar    1  UNL1        0.1189
     12 N           7.4154   -4.2866   26.3918 N.ar    1  UNL1       -0.2826
     13 C           8.6433   -3.6167   26.9339 C.ar    1  UNL1        0.1826
     14 N           8.8747   -4.1284   28.3247 N.ar    1  UNL1       -0.2280
     15 C           7.7900   -5.1146   28.6423 C.ar    1  UNL1        0.0786
     16 C           7.6345   -5.8703   29.9287 C.3     1  UNL1        0.0538
     17 C           6.8881   -5.2123   27.4477 C.ar    1  UNL1        0.0963
     18 C           8.0963   -7.2642   24.4448 C.3     1  UNL1        0.2543
     19 O           8.4240   -5.8567   24.0430 O.3     1  UNL1       -0.4551
     20 N           4.3060   -1.4195   17.7062 N.pl3   1  UNL1       -0.2786
     21 H           4.1253   -1.7413   16.7935 H       1  UNL1        0.1555
     22 C           4.4630    0.0494   17.9663 C.ar    1  UNL1        0.1274
     23 C           5.5727    0.9212   17.4578 C.ar    1  UNL1        0.0244
     24 C           5.3334    2.3150   17.9578 C.ar    1  UNL1        0.0773
     25 N           4.0758    2.3046   18.7753 N.ar    1  UNL1       -0.1730
     26 N           3.5379    0.9044   18.7807 N.ar    1  UNL1       -0.2402
     27 C           6.2915    3.4135   17.6040 C.3     1  UNL1        0.0474
     28 C           7.4889    3.1182   16.7503 C.3     1  UNL1        0.0067
     29 C           7.7282    1.7244   16.2503 C.3     1  UNL1        0.0052
     30 C           6.7701    0.6259   16.6040 C.3     1  UNL1        0.0305
     31 C           2.2933    0.4407   19.4778 C.3     1  UNL1        0.1065
     32 C           2.0050   -0.4052   20.6827 C.3     1  UNL1        0.0245
     33 C           0.5333   -0.2152   20.4638 C.3     1  UNL1        0.0040
     34 C           0.8215    0.6306   19.2590 C.3     1  UNL1        0.0245
@<TRIPOS>BOND
     1    18    19    1
     2    19     6    1
     3     6     7   ar
     4     7     8   ar
     5     8     1    1
     6     1     2   ar
     7     2     3   ar
     8     3     4   ar
     9     4    20    1
    10    20    22    1
    11    22    23   ar
    12    23    24   ar
    13    24    25   ar
    14    25    26   ar
    15    26    31    1
    16    31    32    1
    17    32    33    1
    18    33    34    1
    19    24    27    1
    20    27    28    1
    21    28    29    1
    22    29    30    1
    23     4     5   ar
    24     8     9   ar
    25     9    10   ar
    26    10    11   ar
    27    11    12    1
    28    12    13   ar
    29    13    14   ar
    30    14    15   ar
    31    15    16    1
    32    15    17   ar
    33    11     6   ar
    34    17    12   ar
    35     5     1   ar
    36    26    22   ar
    37    34    31    1
    38    30    23    1
    39    20    21    1
@<TRIPOS>MOLECULE
*****
 34 39 0 0 0
SMALL
GASTEIGER

@<TRIPOS>ATOM
      1 C           3.8055   -0.5271   26.9893 C.ar    1  UNL1        0.1074
      2 C           4.5289    0.6274   27.6167 C.ar    1  UNL1        0.0588
      3 S           3.9794    0.8228   28.9987 S.2     1  UNL1       -0.0508
      4 C           2.9165   -0.2109   29.2253 C.ar    1  UNL1        0.1646
      5 N           2.8090   -1.0452   27.9834 N.ar    1  UNL1       -0.2224
      6 C           3.4030   -1.1598   23.0921 C.ar    1  UNL1        0.2416
      7 N           3.1706   -0.6184   24.4715 N.ar    1  UNL1       -0.2089
      8 C           4.0378   -1.0684   25.6098 C.ar    1  UNL1        0.1026
      9 C           5.1373   -2.0599   25.3685 C.ar    1  UNL1        0.0224
     10 C           5.3696   -2.6012   23.9890 C.ar    1  UNL1        0.0239
     11 C           4.5025   -2.1511   22.8508 C.ar    1  UNL1        0.1189
     12 N           4.7348   -2.6925   21.4713 N.ar    1  UNL1       -0.2826
     13 C           5.4533   -1.9897   20.3578 C.ar    1  UNL1        0.1826
     14 N           5.4520   -2.8945   19.1615 N.ar    1  UNL1       -0.2280
     15 C           4.7326   -4.1566   19.5356 C.ar    1  UNL1        0.0786
     16 C           4.4978   -5.3363   18.6394 C.3     1  UNL1        0.0538
     17 C           4.2894   -4.0316   20.9632 C.ar    1  UNL1        0.0963
     18 C           2.8020    0.6050   21.2826 C.3     1  UNL1        0.2543
     19 O           2.5359   -0.7097   21.9539 O.3     1  UNL1       -0.4551
     20 N           2.1037   -0.3806   30.4747 N.pl3   1  UNL1       -0.2786
     21 H           1.3509   -1.0150   30.4898 H       1  UNL1        0.1555
     22 C           2.4377    0.4162   31.7008 C.ar    1  UNL1        0.1274
     23 C           1.7870    1.7004   32.1221 C.ar    1  UNL1        0.0244
     24 C           2.4282    2.1467   33.4026 C.ar    1  UNL1        0.0773
     25 N           3.4754    1.1383   33.7726 N.ar    1  UNL1       -0.1730
     26 N           3.4812    0.0689   32.7208 N.ar    1  UNL1       -0.2402
     27 C           1.9759    3.4135   34.0662 C.3     1  UNL1        0.0474
     28 C           0.8822    4.2340   33.4493 C.3     1  UNL1        0.0067
     29 C           0.2409    3.7878   32.1689 C.3     1  UNL1        0.0052
     30 C           0.6933    2.5209   31.5053 C.3     1  UNL1        0.0305
     31 C           4.3739   -1.1363   32.6938 C.3     1  UNL1        0.1065
     32 C           5.4090   -1.6687   31.7476 C.3     1  UNL1        0.0245
     33 C           5.6362   -2.8407   32.6557 C.3     1  UNL1        0.0040
     34 C           4.6012   -2.3085   33.6019 C.3     1  UNL1        0.0245
@<TRIPOS>BOND
     1    18    19    1
     2    19     6    1
     3     6     7   ar
     4     7     8   ar
     5     8     1    1
     6     1     2   ar
     7     2     3   ar
     8     3     4   ar
     9     4    20    1
    10    20    22    1
    11    22    23   ar
    12    23    24   ar
    13    24    25   ar
    14    25    26   ar
    15    26    31    1
    16    31    32    1
    17    32    33    1
    18    33    34    1
    19    24    27    1
    20    27    28    1
    21    28    29    1
    22    29    30    1
    23     4     5   ar
    24     8     9   ar
    25     9    10   ar
    26    10    11   ar
    27    11    12    1
    28    12    13   ar
    29    13    14   ar
    30    14    15   ar
    31    15    16    1
    32    15    17   ar
    33    11     6   ar
    34    17    12   ar
    35     5     1   ar
    36    26    22   ar
    37    34    31    1
    38    30    23    1
    39    20    21    1
@<TRIPOS>MOLECULE
*****
 34 39 0 0 0
SMALL
GASTEIGER

@<TRIPOS>ATOM
      1 C           4.1477   -0.1261   25.6711 C.ar    1  UNL1        0.1074
      2 C           5.5215    0.1237   25.1231 C.ar    1  UNL1        0.0588
      3 S           5.6601   -0.6537   23.8478 S.2     1  UNL1       -0.0508
      4 C           4.3721   -1.3839   23.6076 C.ar    1  UNL1        0.1646
      5 N           3.4373   -1.0578   24.7345 N.ar    1  UNL1       -0.2224
      6 C           1.8437    0.3819   28.8623 C.ar    1  UNL1        0.2416
      7 N           2.4079   -0.1983   27.5993 N.ar    1  UNL1       -0.2089
      8 C           3.5834    0.4541   26.9340 C.ar    1  UNL1        0.1026
      9 C           4.1946    1.6867   27.5317 C.ar    1  UNL1        0.0224
     10 C           3.6303    2.2669   28.7947 C.ar    1  UNL1        0.0239
     11 C           2.4548    1.6144   29.4599 C.ar    1  UNL1        0.1189
     12 N           1.8905    2.1946   30.7228 N.ar    1  UNL1       -0.2826
     13 C           2.1775    1.7197   32.1165 C.ar    1  UNL1        0.1826
     14 N           1.4046    2.5830   33.0688 N.ar    1  UNL1       -0.2280
     15 C           0.6397    3.5916   32.2638 C.ar    1  UNL1        0.0786
     16 C          -0.2663    4.6537   32.8124 C.3     1  UNL1        0.0538
     17 C           0.9401    3.3515   30.8138 C.ar    1  UNL1        0.0963
     18 C          -0.6579   -0.3189   28.8281 C.3     1  UNL1        0.2543
     19 O           0.6682   -0.2705   29.5275 O.3     1  UNL1       -0.4551
     20 N           4.0714   -2.2825   22.4447 N.pl3   1  UNL1       -0.2786
     21 H           3.8419   -3.2273   22.5991 H       1  UNL1        0.1555
     22 C           4.1205   -1.7414   21.0465 C.ar    1  UNL1        0.1274
     23 C           3.0313   -0.9715   20.3603 C.ar    1  UNL1        0.0244
     24 C           3.5051   -0.6296   18.9788 C.ar    1  UNL1        0.0773
     25 N           4.8871   -1.1882   18.8112 N.ar    1  UNL1       -0.1730
     26 N           5.2675   -1.8753   20.0891 N.ar    1  UNL1       -0.2402
     27 C           2.6169    0.1462   18.0519 C.3     1  UNL1        0.0474
     28 C           1.2549    0.5801   18.5066 C.3     1  UNL1        0.0067
     29 C           0.7811    0.2381   19.8881 C.3     1  UNL1        0.0052
     30 C           1.6694   -0.5377   20.8150 C.3     1  UNL1        0.0305
     31 C           6.5666   -2.5738   20.3618 C.3     1  UNL1        0.1065
     32 C           6.9560   -3.9438   20.8324 C.3     1  UNL1        0.0245
     33 C           8.4039   -3.5615   20.7473 C.3     1  UNL1        0.0040
     34 C           8.0147   -2.1915   20.2767 C.3     1  UNL1        0.0245
@<TRIPOS>BOND
     1    18    19    1
     2    19     6    1
     3     6     7   ar
     4     7     8   ar
     5     8     1    1
     6     1     2   ar
     7     2     3   ar
     8     3     4   ar
     9     4    20    1
    10    20    22    1
    11    22    23   ar
    12    23    24   ar
    13    24    25   ar
    14    25    26   ar
    15    26    31    1
    16    31    32    1
    17    32    33    1
    18    33    34    1
    19    24    27    1
    20    27    28    1
    21    28    29    1
    22    29    30    1
    23     4     5   ar
    24     8     9   ar
    25     9    10   ar
    26    10    11   ar
    27    11    12    1
    28    12    13   ar
    29    13    14   ar
    30    14    15   ar
    31    15    16    1
    32    15    17   ar
    33    11     6   ar
    34    17    12   ar
    35     5     1   ar
    36    26    22   ar
    37    34    31    1
    38    30    23    1
    39    20    21    1
