@<TRIPOS>MOLECULE
*****
 37 40 0 0 0
SMALL
GASTEIGER

@<TRIPOS>ATOM
      1 C          -7.2508  -17.2637   23.2338 C.ar    1  UNL1        0.0768
      2 N          -5.9139  -16.6182   23.4484 N.ar    1  UNL1       -0.2480
      3 C          -4.6898  -17.1956   22.8016 C.ar    1  UNL1        0.0812
      4 C          -3.3530  -16.5501   23.0161 C.ar    1  UNL1        0.0214
      5 C          -2.1289  -17.1275   22.3694 C.ar    1  UNL1        0.0312
      6 C          -2.2418  -18.3503   21.5081 C.ar    1  UNL1        0.1402
      7 F          -1.0177  -18.9277   20.8613 F       1  UNL1       -0.2042
      8 C          -3.5787  -18.9958   21.2935 C.ar    1  UNL1        0.0313
      9 C          -4.8027  -18.4184   21.9402 C.ar    1  UNL1        0.0243
     10 C          -6.1397  -19.0639   21.7257 C.ar    1  UNL1        0.0558
     11 C          -7.3637  -18.4865   22.3724 C.ar    1  UNL1        0.0196
     12 C          -8.7006  -19.1320   22.1579 C.ar    1  UNL1        0.0013
     13 C          -9.3450  -19.9090   23.2674 C.ar    1  UNL1        0.0000
     14 C         -10.6819  -20.5545   23.0529 C.ar    1  UNL1        0.0000
     15 C         -11.3744  -20.4229   21.7289 C.ar    1  UNL1        0.0000
     16 C         -10.7301  -19.6458   20.6194 C.ar    1  UNL1        0.0000
     17 C          -9.3932  -19.0004   20.8339 C.ar    1  UNL1        0.0000
     18 C          -6.2525  -20.2867   20.8643 C.2     1  UNL1        0.2428
     19 N          -6.6656  -20.1570   19.4281 N.am    1  UNL1       -0.3253
     20 O          -5.9523  -21.6393   21.4391 O.2     1  UNL1       -0.2704
     21 H          -6.8626  -19.2692   19.0509 H       1  UNL1        0.1453
     22 H          -6.7397  -20.9596   18.8628 H       1  UNL1        0.1453
     23 C          -8.8522  -17.0974   25.2729 C.3     1  UNL1        0.0278
     24 C          -8.4749  -16.6863   23.8806 C.3     1  UNL1        0.1109
     25 N          -9.3217  -15.6979   23.1350 N.pl3   1  UNL1       -0.3142
     26 H          -9.0508  -14.7524   23.0903 H       1  UNL1        0.1485
     27 C         -10.5813  -16.1500   22.4575 C.ar    1  UNL1        0.1429
     28 N         -11.5224  -17.0786   23.1661 N.ar    1  UNL1       -0.2084
     29 C         -12.7819  -17.5307   22.4886 C.ar    1  UNL1        0.2012
     30 N         -13.1005  -17.0542   21.1024 N.ar    1  UNL1       -0.2087
     31 C         -12.1595  -16.1256   20.3938 C.ar    1  UNL1        0.1396
     32 N         -12.4781  -15.6490   19.0076 N.pl3   1  UNL1       -0.3420
     33 C         -10.8999  -15.6734   21.0713 C.ar    1  UNL1        0.1308
     34 H         -13.3048  -15.9458   18.5629 H       1  UNL1        0.1437
     35 H         -11.8605  -15.0396   18.5425 H       1  UNL1        0.1437
     36 C          -9.9589  -14.7448   20.3627 C.1     1  UNL1        0.1061
     37 N          -9.0179  -13.8163   19.6540 N.1     1  UNL1       -0.1906
@<TRIPOS>BOND
     1    24    23    1
     2    24    25    1
     3    25    27    1
     4    27    28   ar
     5    28    29   ar
     6    29    30   ar
     7    30    31   ar
     8    31    32    1
     9    31    33   ar
    10    33    36    1
    11    36    37    3
    12    24     1    1
    13     1     2   ar
    14     2     3   ar
    15     3     4   ar
    16     4     5   ar
    17     5     6   ar
    18     6     7    1
    19     6     8   ar
    20     8     9   ar
    21     9    10   ar
    22    10    18    1
    23    18    19   am
    24    18    20    2
    25    10    11   ar
    26    11    12    1
    27    12    13   ar
    28    13    14   ar
    29    14    15   ar
    30    15    16   ar
    31    16    17   ar
    32    33    27   ar
    33    11     1   ar
    34    17    12   ar
    35     9     3   ar
    36    25    26    1
    37    32    34    1
    38    32    35    1
    39    19    21    1
    40    19    22    1
@<TRIPOS>MOLECULE
*****
 37 40 0 0 0
SMALL
GASTEIGER

@<TRIPOS>ATOM
      1 C          -7.2102  -16.9595   23.3250 C.ar    1  UNL1        0.0768
      2 N          -5.8907  -16.2469   23.3521 N.ar    1  UNL1       -0.2480
      3 C          -4.6730  -16.9008   22.7691 C.ar    1  UNL1        0.0812
      4 C          -3.3534  -16.1881   22.7962 C.ar    1  UNL1        0.0214
      5 C          -2.1358  -16.8420   22.2132 C.ar    1  UNL1        0.0312
      6 C          -2.2378  -18.2085   21.6031 C.ar    1  UNL1        0.1402
      7 F          -1.0202  -18.8624   21.0201 F       1  UNL1       -0.2042
      8 C          -3.5574  -18.9212   21.5761 C.ar    1  UNL1        0.0313
      9 C          -4.7750  -18.2673   22.1590 C.ar    1  UNL1        0.0243
     10 C          -6.0947  -18.9800   22.1320 C.ar    1  UNL1        0.0558
     11 C          -7.3122  -18.3261   22.7149 C.ar    1  UNL1        0.0196
     12 C          -8.6319  -19.0387   22.6879 C.ar    1  UNL1        0.0013
     13 C          -9.3555  -19.2280   21.3877 C.ar    1  UNL1        0.0000
     14 C         -10.6751  -19.9406   21.3606 C.ar    1  UNL1        0.0000
     15 C         -11.2711  -20.4640   22.6337 C.ar    1  UNL1        0.0000
     16 C         -10.5475  -20.2747   23.9339 C.ar    1  UNL1        0.0000
     17 C          -9.2279  -19.5621   23.9610 C.ar    1  UNL1        0.0000
     18 C          -6.1967  -20.3465   21.5219 C.2     1  UNL1        0.2428
     19 N          -6.2822  -20.4982   20.0320 N.am    1  UNL1       -0.3253
     20 O          -6.2131  -21.5613   22.4017 O.2     1  UNL1       -0.2704
     21 H          -6.2714  -19.7009   19.4546 H       1  UNL1        0.1453
     22 H          -6.3492  -21.3951   19.6316 H       1  UNL1        0.1453
     23 C          -8.3316  -15.5664   25.2096 C.3     1  UNL1        0.0278
     24 C          -8.4279  -16.3057   23.9080 C.3     1  UNL1        0.1109
     25 N          -9.7417  -16.3911   23.1894 N.pl3   1  UNL1       -0.3142
     26 H         -10.4992  -16.8648   23.6031 H       1  UNL1        0.1485
     27 C          -9.9015  -15.7548   21.8405 C.ar    1  UNL1        0.1429
     28 N          -8.8194  -14.8705   21.2954 N.ar    1  UNL1       -0.2084
     29 C          -8.9791  -14.2342   19.9465 C.ar    1  UNL1        0.2012
     30 N         -10.2210  -14.4822   19.1426 N.ar    1  UNL1       -0.2087
     31 C         -11.3031  -15.3664   19.6876 C.ar    1  UNL1        0.1396
     32 N         -12.5450  -15.6144   18.8837 N.pl3   1  UNL1       -0.3420
     33 C         -11.1434  -16.0028   21.0366 C.ar    1  UNL1        0.1308
     34 H         -12.6499  -15.1968   17.9984 H       1  UNL1        0.1437
     35 H         -13.2552  -16.1948   19.2415 H       1  UNL1        0.1437
     36 C         -12.2255  -16.8870   21.5816 C.1     1  UNL1        0.1061
     37 N         -13.3076  -17.7713   22.1266 N.1     1  UNL1       -0.1906
@<TRIPOS>BOND
     1    24    23    1
     2    24    25    1
     3    25    27    1
     4    27    28   ar
     5    28    29   ar
     6    29    30   ar
     7    30    31   ar
     8    31    32    1
     9    31    33   ar
    10    33    36    1
    11    36    37    3
    12    24     1    1
    13     1     2   ar
    14     2     3   ar
    15     3     4   ar
    16     4     5   ar
    17     5     6   ar
    18     6     7    1
    19     6     8   ar
    20     8     9   ar
    21     9    10   ar
    22    10    18    1
    23    18    19   am
    24    18    20    2
    25    10    11   ar
    26    11    12    1
    27    12    13   ar
    28    13    14   ar
    29    14    15   ar
    30    15    16   ar
    31    16    17   ar
    32    33    27   ar
    33    11     1   ar
    34    17    12   ar
    35     9     3   ar
    36    25    26    1
    37    32    34    1
    38    32    35    1
    39    19    21    1
    40    19    22    1
@<TRIPOS>MOLECULE
*****
 37 40 0 0 0
SMALL
GASTEIGER

@<TRIPOS>ATOM
      1 C           4.8402   -3.0880   21.0218 C.ar    1  UNL1        0.0768
      2 N           5.6586   -3.9937   21.8935 N.ar    1  UNL1       -0.2480
      3 C           5.8720   -3.6524   23.3385 C.ar    1  UNL1        0.0812
      4 C           6.6904   -4.5581   24.2102 C.ar    1  UNL1        0.0214
      5 C           6.9038   -4.2167   25.6551 C.ar    1  UNL1        0.0312
      6 C           6.2988   -2.9695   26.2284 C.ar    1  UNL1        0.1402
      7 F           6.5122   -2.6281   27.6734 F       1  UNL1       -0.2042
      8 C           5.4804   -2.0638   25.3567 C.ar    1  UNL1        0.0313
      9 C           5.2670   -2.4052   23.9118 C.ar    1  UNL1        0.0243
     10 C           4.4486   -1.4995   23.0400 C.ar    1  UNL1        0.0558
     11 C           4.2352   -1.8409   21.5951 C.ar    1  UNL1        0.0196
     12 C           3.4167   -0.9352   20.7233 C.ar    1  UNL1        0.0013
     13 C           4.0786    0.1815   19.9716 C.ar    1  UNL1        0.0000
     14 C           3.2603    1.0872   19.0999 C.ar    1  UNL1        0.0000
     15 C           1.7801    0.8763   18.9799 C.ar    1  UNL1        0.0000
     16 C           1.1182   -0.2404   19.7316 C.ar    1  UNL1        0.0000
     17 C           1.9365   -1.1461   20.6033 C.ar    1  UNL1        0.0000
     18 C           3.8435   -0.2524   23.6133 C.2     1  UNL1        0.2428
     19 N           2.5185   -0.3150   24.3136 N.am    1  UNL1       -0.3253
     20 O           4.5635    1.0574   23.4863 O.2     1  UNL1       -0.2704
     21 H           2.0459   -1.1746   24.3969 H       1  UNL1        0.1453
     22 H           2.1214    0.5035   24.6898 H       1  UNL1        0.1453
     23 C           3.2841   -3.9079   19.1096 C.3     1  UNL1        0.0278
     24 C           4.6268   -3.4294   19.5768 C.3     1  UNL1        0.1109
     25 N           5.7560   -3.2923   18.5991 N.pl3   1  UNL1       -0.3142
     26 H           6.1550   -4.0951   18.1922 H       1  UNL1        0.1485
     27 C           6.2772   -1.9321   18.2413 C.ar    1  UNL1        0.1429
     28 N           5.5702   -1.1058   17.2081 N.ar    1  UNL1       -0.2084
     29 C           6.0914    0.2544   16.8504 C.ar    1  UNL1        0.2012
     30 N           7.3197    0.7885   17.5258 N.ar    1  UNL1       -0.2087
     31 C           8.0268   -0.0377   18.5589 C.ar    1  UNL1        0.1396
     32 N           9.2550    0.4963   19.2343 N.pl3   1  UNL1       -0.3420
     33 C           7.5055   -1.3981   18.9167 C.ar    1  UNL1        0.1308
     34 H           9.5971    1.3891   18.9995 H       1  UNL1        0.1437
     35 H           9.7191   -0.0460   19.9124 H       1  UNL1        0.1437
     36 C           8.2126   -2.2243   19.9498 C.1     1  UNL1        0.1061
     37 N           8.9196   -3.0505   20.9830 N.1     1  UNL1       -0.1906
@<TRIPOS>BOND
     1    24    23    1
     2    24    25    1
     3    25    27    1
     4    27    28   ar
     5    28    29   ar
     6    29    30   ar
     7    30    31   ar
     8    31    32    1
     9    31    33   ar
    10    33    36    1
    11    36    37    3
    12    24     1    1
    13     1     2   ar
    14     2     3   ar
    15     3     4   ar
    16     4     5   ar
    17     5     6   ar
    18     6     7    1
    19     6     8   ar
    20     8     9   ar
    21     9    10   ar
    22    10    18    1
    23    18    19   am
    24    18    20    2
    25    10    11   ar
    26    11    12    1
    27    12    13   ar
    28    13    14   ar
    29    14    15   ar
    30    15    16   ar
    31    16    17   ar
    32    33    27   ar
    33    11     1   ar
    34    17    12   ar
    35     9     3   ar
    36    25    26    1
    37    32    34    1
    38    32    35    1
    39    19    21    1
    40    19    22    1
@<TRIPOS>MOLECULE
*****
 37 40 0 0 0
SMALL
GASTEIGER

@<TRIPOS>ATOM
      1 C           3.3483   -0.4986   24.8275 C.ar    1  UNL1        0.0768
      2 N           4.1278   -1.6724   24.3133 N.ar    1  UNL1       -0.2480
      3 C           4.0380   -2.0566   22.8661 C.ar    1  UNL1        0.0812
      4 C           4.8175   -3.2304   22.3519 C.ar    1  UNL1        0.0214
      5 C           4.7276   -3.6145   20.9048 C.ar    1  UNL1        0.0312
      6 C           3.8582   -2.8248   19.9718 C.ar    1  UNL1        0.1402
      7 F           3.7683   -3.2090   18.5245 F       1  UNL1       -0.2042
      8 C           3.0786   -1.6510   20.4859 C.ar    1  UNL1        0.0313
      9 C           3.1685   -1.2669   21.9331 C.ar    1  UNL1        0.0243
     10 C           2.3890   -0.0930   22.4474 C.ar    1  UNL1        0.0558
     11 C           2.4789    0.2911   23.8945 C.ar    1  UNL1        0.0196
     12 C           1.6993    1.4650   24.4088 C.ar    1  UNL1        0.0013
     13 C           2.3011    2.8385   24.3733 C.ar    1  UNL1        0.0000
     14 C           1.5216    4.0123   24.8875 C.ar    1  UNL1        0.0000
     15 C           0.1403    3.8126   25.4372 C.ar    1  UNL1        0.0000
     16 C          -0.4615    2.4391   25.4726 C.ar    1  UNL1        0.0000
     17 C           0.3180    1.2653   24.9584 C.ar    1  UNL1        0.0000
     18 C           1.5195    0.6967   21.5144 C.2     1  UNL1        0.2428
     19 N           2.0619    1.9222   20.8405 N.am    1  UNL1       -0.3253
     20 O           0.1078    0.2609   21.2552 O.2     1  UNL1       -0.2704
     21 H           2.9884    2.2082   21.0106 H       1  UNL1        0.1453
     22 H           1.4912    2.4405   20.2281 H       1  UNL1        0.1453
     23 C           4.2845    1.0524   26.6898 C.3     1  UNL1        0.0278
     24 C           3.4382   -0.1144   26.2747 C.3     1  UNL1        0.1109
     25 N           2.6817   -0.8971   27.3068 N.pl3   1  UNL1       -0.3142
     26 H           2.5680   -1.8693   27.2017 H       1  UNL1        0.1485
     27 C           2.0985   -0.1984   28.4991 C.ar    1  UNL1        0.1429
     28 N           0.7620    0.4745   28.3946 N.ar    1  UNL1       -0.2084
     29 C           0.1788    1.1732   29.5870 C.ar    1  UNL1        0.2012
     30 N           0.9321    1.1990   30.8838 N.ar    1  UNL1       -0.2087
     31 C           2.2686    0.5262   30.9884 C.ar    1  UNL1        0.1396
     32 N           3.0219    0.5520   32.2852 N.pl3   1  UNL1       -0.3420
     33 C           2.8518   -0.1725   29.7960 C.ar    1  UNL1        0.1308
     34 H           2.6391    1.0106   33.0678 H       1  UNL1        0.1437
     35 H           3.8991    0.1104   32.3538 H       1  UNL1        0.1437
     36 C           4.1883   -0.8454   29.9006 C.1     1  UNL1        0.1061
     37 N           5.5249   -1.5182   30.0051 N.1     1  UNL1       -0.1906
@<TRIPOS>BOND
     1    24    23    1
     2    24    25    1
     3    25    27    1
     4    27    28   ar
     5    28    29   ar
     6    29    30   ar
     7    30    31   ar
     8    31    32    1
     9    31    33   ar
    10    33    36    1
    11    36    37    3
    12    24     1    1
    13     1     2   ar
    14     2     3   ar
    15     3     4   ar
    16     4     5   ar
    17     5     6   ar
    18     6     7    1
    19     6     8   ar
    20     8     9   ar
    21     9    10   ar
    22    10    18    1
    23    18    19   am
    24    18    20    2
    25    10    11   ar
    26    11    12    1
    27    12    13   ar
    28    13    14   ar
    29    14    15   ar
    30    15    16   ar
    31    16    17   ar
    32    33    27   ar
    33    11     1   ar
    34    17    12   ar
    35     9     3   ar
    36    25    26    1
    37    32    34    1
    38    32    35    1
    39    19    21    1
    40    19    22    1
@<TRIPOS>MOLECULE
*****
 37 40 0 0 0
SMALL
GASTEIGER

@<TRIPOS>ATOM
      1 C          -6.6983  -18.0805   21.9679 C.ar    1  UNL1        0.0768
      2 N          -5.5668  -17.4802   22.7484 N.ar    1  UNL1       -0.2480
      3 C          -5.8503  -16.6779   23.9838 C.ar    1  UNL1        0.0812
      4 C          -4.7187  -16.0776   24.7643 C.ar    1  UNL1        0.0214
      5 C          -5.0023  -15.2753   25.9995 C.ar    1  UNL1        0.0312
      6 C          -6.4173  -15.0734   26.4543 C.ar    1  UNL1        0.1402
      7 F          -6.7008  -14.2710   27.6896 F       1  UNL1       -0.2042
      8 C          -7.5489  -15.6737   25.6738 C.ar    1  UNL1        0.0313
      9 C          -7.2653  -16.4759   24.4385 C.ar    1  UNL1        0.0243
     10 C          -8.3969  -17.0763   23.6579 C.ar    1  UNL1        0.0558
     11 C          -8.1133  -17.8785   22.4227 C.ar    1  UNL1        0.0196
     12 C          -9.2449  -18.4789   21.6421 C.ar    1  UNL1        0.0013
     13 C          -9.7169  -17.8212   20.3793 C.ar    1  UNL1        0.0000
     14 C         -10.8484  -18.4215   19.5987 C.ar    1  UNL1        0.0000
     15 C         -11.5079  -19.6795   20.0810 C.ar    1  UNL1        0.0000
     16 C         -11.0358  -20.3372   21.3437 C.ar    1  UNL1        0.0000
     17 C          -9.9043  -19.7369   22.1243 C.ar    1  UNL1        0.0000
     18 C          -9.8119  -16.8743   24.1127 C.2     1  UNL1        0.2428
     19 N         -10.6112  -15.7191   23.5866 N.am    1  UNL1       -0.3253
     20 O         -10.4278  -17.8275   25.0936 O.2     1  UNL1       -0.2704
     21 H         -10.2070  -15.0935   22.9428 H       1  UNL1        0.1453
     22 H         -11.5399  -15.5865   23.8850 H       1  UNL1        0.1453
     23 C          -7.2609  -20.0768   20.4032 C.3     1  UNL1        0.0278
     24 C          -6.4148  -18.8828   20.7326 C.3     1  UNL1        0.1109
     25 N          -5.2852  -18.4911   19.8267 N.pl3   1  UNL1       -0.3142
     26 H          -5.4730  -18.0354   18.9745 H       1  UNL1        0.1485
     27 C          -3.8695  -18.7937   20.2193 C.ar    1  UNL1        0.1429
     28 N          -3.5907  -19.7298   21.3577 N.ar    1  UNL1       -0.2084
     29 C          -2.1750  -20.0324   21.7504 C.ar    1  UNL1        0.2012
     30 N          -1.0381  -19.3989   21.0046 N.ar    1  UNL1       -0.2087
     31 C          -1.3169  -18.4628   19.8662 C.ar    1  UNL1        0.1396
     32 N          -0.1800  -17.8293   19.1204 N.pl3   1  UNL1       -0.3420
     33 C          -2.7327  -18.1602   19.4735 C.ar    1  UNL1        0.1308
     34 H           0.7492  -18.0280   19.3781 H       1  UNL1        0.1437
     35 H          -0.3630  -17.2150   18.3733 H       1  UNL1        0.1437
     36 C          -3.0115  -17.2241   18.3352 C.1     1  UNL1        0.1061
     37 N          -3.2903  -16.2880   17.1968 N.1     1  UNL1       -0.1906
@<TRIPOS>BOND
     1    24    23    1
     2    24    25    1
     3    25    27    1
     4    27    28   ar
     5    28    29   ar
     6    29    30   ar
     7    30    31   ar
     8    31    32    1
     9    31    33   ar
    10    33    36    1
    11    36    37    3
    12    24     1    1
    13     1     2   ar
    14     2     3   ar
    15     3     4   ar
    16     4     5   ar
    17     5     6   ar
    18     6     7    1
    19     6     8   ar
    20     8     9   ar
    21     9    10   ar
    22    10    18    1
    23    18    19   am
    24    18    20    2
    25    10    11   ar
    26    11    12    1
    27    12    13   ar
    28    13    14   ar
    29    14    15   ar
    30    15    16   ar
    31    16    17   ar
    32    33    27   ar
    33    11     1   ar
    34    17    12   ar
    35     9     3   ar
    36    25    26    1
    37    32    34    1
    38    32    35    1
    39    19    21    1
    40    19    22    1
@<TRIPOS>MOLECULE
*****
 37 40 0 0 0
SMALL
GASTEIGER

@<TRIPOS>ATOM
      1 C           2.8939   -0.0250   24.4432 C.ar    1  UNL1        0.0768
      2 N           3.6965   -1.2694   24.2046 N.ar    1  UNL1       -0.2480
      3 C           3.7536   -1.8736   22.8328 C.ar    1  UNL1        0.0812
      4 C           4.5563   -3.1181   22.5941 C.ar    1  UNL1        0.0214
      5 C           4.6133   -3.7221   21.2224 C.ar    1  UNL1        0.0312
      6 C           3.8677   -3.0818   20.0892 C.ar    1  UNL1        0.1402
      7 F           3.9247   -3.6859   18.7174 F       1  UNL1       -0.2042
      8 C           3.0650   -1.8373   20.3279 C.ar    1  UNL1        0.0313
      9 C           3.0080   -1.2332   21.6996 C.ar    1  UNL1        0.0243
     10 C           2.2053    0.0113   21.9384 C.ar    1  UNL1        0.0558
     11 C           2.1483    0.6154   23.3101 C.ar    1  UNL1        0.0196
     12 C           1.3456    1.8600   23.5488 C.ar    1  UNL1        0.0013
     13 C           1.9906    3.2069   23.4081 C.ar    1  UNL1        0.0000
     14 C           1.1880    4.4514   23.6468 C.ar    1  UNL1        0.0000
     15 C          -0.2596    4.3489   24.0262 C.ar    1  UNL1        0.0000
     16 C          -0.9046    3.0020   24.1668 C.ar    1  UNL1        0.0000
     17 C          -0.1020    1.7575   23.9282 C.ar    1  UNL1        0.0000
     18 C           1.4597    0.6517   20.8052 C.2     1  UNL1        0.2428
     19 N           0.0658    0.2049   20.4771 N.am    1  UNL1       -0.3253
     20 O           2.1078    1.7388   20.0003 O.2     1  UNL1       -0.2704
     21 H          -0.3596   -0.5086   21.0054 H       1  UNL1        0.1453
     22 H          -0.4236    0.6252   19.7334 H       1  UNL1        0.1453
     23 C           3.9734    1.4234   26.3106 C.3     1  UNL1        0.0278
     24 C           2.8368    0.5792   25.8151 C.3     1  UNL1        0.1109
     25 N           1.6432    0.3392   26.6912 N.pl3   1  UNL1       -0.3142
     26 H           0.7588    0.1854   26.2870 H       1  UNL1        0.1485
     27 C           1.7972    0.3334   28.1832 C.ar    1  UNL1        0.1429
     28 N           2.5551   -0.7732   28.8548 N.ar    1  UNL1       -0.2084
     29 C           2.7091   -0.7790   30.3469 C.ar    1  UNL1        0.2012
     30 N           2.1051    0.3219   31.1674 N.ar    1  UNL1       -0.2087
     31 C           1.3472    1.4285   30.4959 C.ar    1  UNL1        0.1396
     32 N           0.7433    2.5294   31.3165 N.pl3   1  UNL1       -0.3420
     33 C           1.1932    1.4343   29.0038 C.ar    1  UNL1        0.1308
     34 H           0.8443    2.5256   32.2958 H       1  UNL1        0.1437
     35 H           0.2458    3.2557   30.8757 H       1  UNL1        0.1437
     36 C           0.4353    2.5409   28.3323 C.1     1  UNL1        0.1061
     37 N          -0.3225    3.6476   27.6608 N.1     1  UNL1       -0.1906
@<TRIPOS>BOND
     1    24    23    1
     2    24    25    1
     3    25    27    1
     4    27    28   ar
     5    28    29   ar
     6    29    30   ar
     7    30    31   ar
     8    31    32    1
     9    31    33   ar
    10    33    36    1
    11    36    37    3
    12    24     1    1
    13     1     2   ar
    14     2     3   ar
    15     3     4   ar
    16     4     5   ar
    17     5     6   ar
    18     6     7    1
    19     6     8   ar
    20     8     9   ar
    21     9    10   ar
    22    10    18    1
    23    18    19   am
    24    18    20    2
    25    10    11   ar
    26    11    12    1
    27    12    13   ar
    28    13    14   ar
    29    14    15   ar
    30    15    16   ar
    31    16    17   ar
    32    33    27   ar
    33    11     1   ar
    34    17    12   ar
    35     9     3   ar
    36    25    26    1
    37    32    34    1
    38    32    35    1
    39    19    21    1
    40    19    22    1
@<TRIPOS>MOLECULE
*****
 37 40 0 0 0
SMALL
GASTEIGER

@<TRIPOS>ATOM
      1 C           6.0142   -2.4173   28.7945 C.ar    1  UNL1        0.0768
      2 N           6.1195   -3.1498   27.4898 N.ar    1  UNL1       -0.2480
      3 C           6.7209   -4.5234   27.4472 C.ar    1  UNL1        0.0812
      4 C           6.8261   -5.2559   26.1425 C.ar    1  UNL1        0.0214
      5 C           7.4275   -6.6294   26.1000 C.ar    1  UNL1        0.0312
      6 C           7.9235   -7.2704   27.3621 C.ar    1  UNL1        0.1402
      7 F           8.5249   -8.6440   27.3195 F       1  UNL1       -0.2042
      8 C           7.8183   -6.5379   28.6668 C.ar    1  UNL1        0.0313
      9 C           7.2169   -5.1644   28.7094 C.ar    1  UNL1        0.0243
     10 C           7.1116   -4.4318   30.0141 C.ar    1  UNL1        0.0558
     11 C           6.5103   -3.0583   30.0567 C.ar    1  UNL1        0.0196
     12 C           6.4050   -2.3257   31.3614 C.ar    1  UNL1        0.0013
     13 C           7.5469   -1.4792   31.8405 C.ar    1  UNL1        0.0000
     14 C           7.4417   -0.7466   33.1452 C.ar    1  UNL1        0.0000
     15 C           6.1946   -0.8606   33.9708 C.ar    1  UNL1        0.0000
     16 C           5.0527   -1.7071   33.4917 C.ar    1  UNL1        0.0000
     17 C           5.1579   -2.4397   32.1870 C.ar    1  UNL1        0.0000
     18 C           7.6077   -5.0728   31.2763 C.2     1  UNL1        0.2428
     19 N           6.6526   -5.8066   32.1704 N.am    1  UNL1       -0.3253
     20 O           9.0588   -4.9800   31.6444 O.2     1  UNL1       -0.2704
     21 H           5.7001   -5.8675   31.9287 H       1  UNL1        0.1453
     22 H           6.9781   -6.2273   32.9988 H       1  UNL1        0.1453
     23 C           6.2988    0.1651   28.7746 C.3     1  UNL1        0.0278
     24 C           5.4129   -1.0437   28.8371 C.3     1  UNL1        0.1109
     25 N           3.9257   -0.8790   28.9423 N.pl3   1  UNL1       -0.3142
     26 H           3.4506   -1.1977   29.7435 H       1  UNL1        0.1485
     27 C           3.1625   -0.2288   27.8267 C.ar    1  UNL1        0.1429
     28 N           3.5791   -0.4520   26.4030 N.ar    1  UNL1       -0.2084
     29 C           2.8159    0.1982   25.2874 C.ar    1  UNL1        0.2012
     30 N           1.6359    1.0716   25.5954 N.ar    1  UNL1       -0.2087
     31 C           1.2192    1.2949   27.0189 C.ar    1  UNL1        0.1396
     32 N           0.0393    2.1683   27.3268 N.pl3   1  UNL1       -0.3420
     33 C           1.9825    0.6446   28.1346 C.ar    1  UNL1        0.1308
     34 H          -0.4617    2.5951   26.5946 H       1  UNL1        0.1437
     35 H          -0.2342    2.3148   28.2611 H       1  UNL1        0.1437
     36 C           1.5658    0.8679   29.5581 C.1     1  UNL1        0.1061
     37 N           1.1491    1.0911   30.9816 N.1     1  UNL1       -0.1906
@<TRIPOS>BOND
     1    24    23    1
     2    24    25    1
     3    25    27    1
     4    27    28   ar
     5    28    29   ar
     6    29    30   ar
     7    30    31   ar
     8    31    32    1
     9    31    33   ar
    10    33    36    1
    11    36    37    3
    12    24     1    1
    13     1     2   ar
    14     2     3   ar
    15     3     4   ar
    16     4     5   ar
    17     5     6   ar
    18     6     7    1
    19     6     8   ar
    20     8     9   ar
    21     9    10   ar
    22    10    18    1
    23    18    19   am
    24    18    20    2
    25    10    11   ar
    26    11    12    1
    27    12    13   ar
    28    13    14   ar
    29    14    15   ar
    30    15    16   ar
    31    16    17   ar
    32    33    27   ar
    33    11     1   ar
    34    17    12   ar
    35     9     3   ar
    36    25    26    1
    37    32    34    1
    38    32    35    1
    39    19    21    1
    40    19    22    1
@<TRIPOS>MOLECULE
*****
 37 40 0 0 0
SMALL
GASTEIGER

@<TRIPOS>ATOM
      1 C           5.4007   -1.7667   29.3133 C.ar    1  UNL1        0.0768
      2 N           5.6327   -2.3223   27.9394 N.ar    1  UNL1       -0.2480
      3 C           6.4528   -3.5657   27.7619 C.ar    1  UNL1        0.0812
      4 C           6.6848   -4.1213   26.3880 C.ar    1  UNL1        0.0214
      5 C           7.5048   -5.3646   26.2105 C.ar    1  UNL1        0.0312
      6 C           8.0928   -6.0524   27.4068 C.ar    1  UNL1        0.1402
      7 F           8.9129   -7.2958   27.2293 F       1  UNL1       -0.2042
      8 C           7.8608   -5.4968   28.7807 C.ar    1  UNL1        0.0313
      9 C           7.0408   -4.2535   28.9582 C.ar    1  UNL1        0.0243
     10 C           6.8087   -3.6979   30.3321 C.ar    1  UNL1        0.0558
     11 C           5.9887   -2.4545   30.5096 C.ar    1  UNL1        0.0196
     12 C           5.7566   -1.8989   31.8835 C.ar    1  UNL1        0.0013
     13 C           6.7592   -0.9650   32.4940 C.ar    1  UNL1        0.0000
     14 C           6.5272   -0.4093   33.8678 C.ar    1  UNL1        0.0000
     15 C           5.2927   -0.7876   34.6311 C.ar    1  UNL1        0.0000
     16 C           4.2901   -1.7215   34.0206 C.ar    1  UNL1        0.0000
     17 C           4.5221   -2.2771   32.6468 C.ar    1  UNL1        0.0000
     18 C           7.3968   -4.3856   31.5284 C.2     1  UNL1        0.2428
     19 N           6.5837   -5.3889   32.2916 N.am    1  UNL1       -0.3253
     20 O           8.7978   -4.0702   31.9615 O.2     1  UNL1       -0.2704
     21 H           5.6641   -5.5959   32.0074 H       1  UNL1        0.1453
     22 H           6.9696   -5.8403   33.0768 H       1  UNL1        0.1453
     23 C           5.2491    0.8193   29.5124 C.3     1  UNL1        0.0278
     24 C           4.5806   -0.5233   29.4909 C.3     1  UNL1        0.1109
     25 N           3.0921   -0.6225   29.6469 N.pl3   1  UNL1       -0.3142
     26 H           2.6293   -1.4638   29.4293 H       1  UNL1        0.1485
     27 C           2.3086    0.5600   30.1345 C.ar    1  UNL1        0.1429
     28 N           2.1596    0.8055   31.6068 N.ar    1  UNL1       -0.2084
     29 C           1.3761    1.9881   32.0944 C.ar    1  UNL1        0.2012
     30 N           0.7418    2.9251   31.1098 N.ar    1  UNL1       -0.2087
     31 C           0.8908    2.6797   29.6376 C.ar    1  UNL1        0.1396
     32 N           0.2564    3.6167   28.6530 N.pl3   1  UNL1       -0.3420
     33 C           1.6743    1.4971   29.1499 C.ar    1  UNL1        0.1308
     34 H          -0.2578    4.3929   28.9730 H       1  UNL1        0.1437
     35 H           0.3542    3.4556   27.6867 H       1  UNL1        0.1437
     36 C           1.8233    1.2516   27.6777 C.1     1  UNL1        0.1061
     37 N           1.9723    1.0062   26.2054 N.1     1  UNL1       -0.1906
@<TRIPOS>BOND
     1    24    23    1
     2    24    25    1
     3    25    27    1
     4    27    28   ar
     5    28    29   ar
     6    29    30   ar
     7    30    31   ar
     8    31    32    1
     9    31    33   ar
    10    33    36    1
    11    36    37    3
    12    24     1    1
    13     1     2   ar
    14     2     3   ar
    15     3     4   ar
    16     4     5   ar
    17     5     6   ar
    18     6     7    1
    19     6     8   ar
    20     8     9   ar
    21     9    10   ar
    22    10    18    1
    23    18    19   am
    24    18    20    2
    25    10    11   ar
    26    11    12    1
    27    12    13   ar
    28    13    14   ar
    29    14    15   ar
    30    15    16   ar
    31    16    17   ar
    32    33    27   ar
    33    11     1   ar
    34    17    12   ar
    35     9     3   ar
    36    25    26    1
    37    32    34    1
    38    32    35    1
    39    19    21    1
    40    19    22    1
@<TRIPOS>MOLECULE
*****
 37 40 0 0 0
SMALL
GASTEIGER

@<TRIPOS>ATOM
      1 C          -7.7414  -18.2293   22.0129 C.ar    1  UNL1        0.0768
      2 N          -8.5918  -17.4474   22.9696 N.ar    1  UNL1       -0.2480
      3 C          -7.9485  -16.6446   24.0613 C.ar    1  UNL1        0.0812
      4 C          -8.7989  -15.8627   25.0180 C.ar    1  UNL1        0.0214
      5 C          -8.1556  -15.0600   26.1097 C.ar    1  UNL1        0.0312
      6 C          -6.6618  -15.0392   26.2446 C.ar    1  UNL1        0.1402
      7 F          -6.0185  -14.2365   27.3364 F       1  UNL1       -0.2042
      8 C          -5.8114  -15.8211   25.2879 C.ar    1  UNL1        0.0313
      9 C          -6.4547  -16.6238   24.1963 C.ar    1  UNL1        0.0243
     10 C          -5.6043  -17.4058   23.2395 C.ar    1  UNL1        0.0558
     11 C          -6.2476  -18.2085   22.1478 C.ar    1  UNL1        0.0196
     12 C          -5.3972  -18.9904   21.1911 C.ar    1  UNL1        0.0013
     13 C          -5.4078  -20.4899   21.2312 C.ar    1  UNL1        0.0000
     14 C          -4.5574  -21.2718   20.2745 C.ar    1  UNL1        0.0000
     15 C          -3.6964  -20.5544   19.2777 C.ar    1  UNL1        0.0000
     16 C          -3.6857  -19.0550   19.2375 C.ar    1  UNL1        0.0000
     17 C          -4.5361  -18.2730   20.1942 C.ar    1  UNL1        0.0000
     18 C          -4.1105  -17.3850   23.3745 C.2     1  UNL1        0.2428
     19 N          -3.3022  -16.3793   22.6093 N.am    1  UNL1       -0.3253
     20 O          -3.4250  -18.3699   24.2745 O.2     1  UNL1       -0.2704
     21 H          -3.7522  -15.7329   22.0186 H       1  UNL1        0.1453
     22 H          -2.3218  -16.3657   22.6979 H       1  UNL1        0.1453
     23 C          -7.7709  -19.0645   19.5529 C.3     1  UNL1        0.0278
     24 C          -8.3847  -19.0320   20.9211 C.3     1  UNL1        0.1109
     25 N          -9.6418  -19.8022   21.1977 N.pl3   1  UNL1       -0.3142
     26 H          -9.6756  -20.7698   21.0190 H       1  UNL1        0.1485
     27 C         -10.8472  -19.0983   21.7466 C.ar    1  UNL1        0.1429
     28 N         -11.6732  -18.2192   20.8549 N.ar    1  UNL1       -0.2084
     29 C         -12.8786  -17.5152   21.4038 C.ar    1  UNL1        0.2012
     30 N         -13.2581  -17.6903   22.8444 N.ar    1  UNL1       -0.2087
     31 C         -12.4322  -18.5693   23.7361 C.ar    1  UNL1        0.1396
     32 N         -12.8117  -18.7443   25.1767 N.pl3   1  UNL1       -0.3420
     33 C         -11.2267  -19.2733   23.1872 C.ar    1  UNL1        0.1308
     34 H         -13.6029  -18.2823   25.5369 H       1  UNL1        0.1437
     35 H         -12.2696  -19.3213   25.7619 H       1  UNL1        0.1437
     36 C         -10.4008  -20.1523   24.0789 C.1     1  UNL1        0.1061
     37 N          -9.5749  -21.0313   24.9706 N.1     1  UNL1       -0.1906
@<TRIPOS>BOND
     1    24    23    1
     2    24    25    1
     3    25    27    1
     4    27    28   ar
     5    28    29   ar
     6    29    30   ar
     7    30    31   ar
     8    31    32    1
     9    31    33   ar
    10    33    36    1
    11    36    37    3
    12    24     1    1
    13     1     2   ar
    14     2     3   ar
    15     3     4   ar
    16     4     5   ar
    17     5     6   ar
    18     6     7    1
    19     6     8   ar
    20     8     9   ar
    21     9    10   ar
    22    10    18    1
    23    18    19   am
    24    18    20    2
    25    10    11   ar
    26    11    12    1
    27    12    13   ar
    28    13    14   ar
    29    14    15   ar
    30    15    16   ar
    31    16    17   ar
    32    33    27   ar
    33    11     1   ar
    34    17    12   ar
    35     9     3   ar
    36    25    26    1
    37    32    34    1
    38    32    35    1
    39    19    21    1
    40    19    22    1
