@<TRIPOS>MOLECULE
*****
 31 33 0 0 0
SMALL
GASTEIGER

@<TRIPOS>ATOM
      1 C          -8.0835  -16.3921   24.4967 C.ar    1  UNL1        0.0293
      2 C          -6.8935  -16.4982   23.5897 C.ar    1  UNL1        0.0145
      3 C          -5.5445  -16.0483   24.0667 C.ar    1  UNL1        0.0505
      4 C          -5.3854  -15.4922   25.4507 C.ar    1  UNL1        0.0170
      5 C          -6.5754  -15.3861   26.3577 C.ar    1  UNL1        0.0306
      6 C          -7.9244  -15.8361   25.8807 C.ar    1  UNL1        0.1380
      7 F          -9.1145  -15.7300   26.7877 F       1  UNL1       -0.2044
      8 C          -9.3453  -17.6028   25.3096 C.3     1  UNL1        0.0321
      9 C          -9.4326  -16.8421   24.0197 C.3     1  UNL1        0.1432
     10 N          -9.0513  -15.9252   22.8955 N.2     1  UNL1       -0.2214
     11 C          -9.9888  -15.7225   21.7422 C.2     1  UNL1        0.2769
     12 N          -9.6075  -14.8055   20.6180 N.pl3   1  UNL1       -0.3133
     13 O         -11.3076  -16.4366   21.7132 O.2     1  UNL1       -0.4480
     14 C         -11.6889  -17.3535   22.8374 C.3     1  UNL1        0.2383
     15 C         -10.7514  -17.5563   23.9907 C.3     1  UNL1        0.2277
     16 F         -11.1326  -18.4732   25.1149 F       1  UNL1       -0.2309
     17 H          -8.7420  -14.3368   20.6370 H       1  UNL1        0.1466
     18 H         -10.2228  -14.6724   19.8611 H       1  UNL1        0.1466
     19 C         -13.0077  -18.0677   22.8084 C.3     1  UNL1        0.2394
     20 F         -14.0013  -17.8528   23.9114 F       1  UNL1       -0.2302
     21 N          -4.3544  -16.1543   23.1597 N.am    1  UNL1       -0.2791
     22 C          -3.8437  -17.5030   22.7473 C.2     1  UNL1        0.2672
     23 O          -4.5230  -18.7457   23.2418 O.2     1  UNL1       -0.2682
     24 H          -3.9086  -15.3388   22.8352 H       1  UNL1        0.1552
     25 C          -2.6537  -17.6092   21.8403 C.ar    1  UNL1        0.1349
     26 C          -2.2003  -18.9530   21.3520 C.ar    1  UNL1        0.0261
     27 C          -1.0102  -19.0591   20.4450 C.ar    1  UNL1        0.0329
     28 C          -0.2736  -17.8214   20.0264 C.ar    1  UNL1        0.1592
     29 F           0.9164  -17.9275   19.1194 F       1  UNL1       -0.2025
     30 C          -0.7269  -16.4775   20.5147 C.ar    1  UNL1        0.1285
     31 N          -1.9169  -16.3714   21.4217 N.ar    1  UNL1       -0.2369
@<TRIPOS>BOND
     1     9     8    1
     2     9     1    1
     3     1     2   ar
     4     2     3   ar
     5     3    21    1
     6    21    22   am
     7    22    23    2
     8    22    25    1
     9    25    26   ar
    10    26    27   ar
    11    27    28   ar
    12    28    29    1
    13    28    30   ar
    14    30    31   ar
    15     3     4   ar
    16     4     5   ar
    17     5     6   ar
    18     6     7    1
    19     9    10    1
    20    10    11    2
    21    11    12    1
    22    11    13    1
    23    13    14    1
    24    14    19    1
    25    19    20    1
    26    14    15    1
    27    15    16    1
    28    15     9    1
    29     6     1   ar
    30    31    25   ar
    31    21    24    1
    32    12    17    1
    33    12    18    1
@<TRIPOS>MOLECULE
*****
 31 33 0 0 0
SMALL
GASTEIGER

@<TRIPOS>ATOM
      1 C          -8.2820  -16.5104   24.5455 C.ar    1  UNL1        0.0293
      2 C          -7.1263  -16.5748   23.5916 C.ar    1  UNL1        0.0145
      3 C          -5.7527  -16.1841   24.0502 C.ar    1  UNL1        0.0505
      4 C          -5.5348  -15.7289   25.4628 C.ar    1  UNL1        0.0170
      5 C          -6.6905  -15.6645   26.4167 C.ar    1  UNL1        0.0306
      6 C          -8.0642  -16.0553   25.9581 C.ar    1  UNL1        0.1380
      7 F          -9.2200  -15.9909   26.9120 F       1  UNL1       -0.2044
      8 C          -9.6679  -15.4435   23.7332 C.3     1  UNL1        0.0321
      9 C          -9.6558  -16.9012   24.0869 C.3     1  UNL1        0.1432
     10 N          -9.1666  -18.2231   24.5999 N.2     1  UNL1       -0.2214
     11 C         -10.0553  -19.4296   24.5314 C.2     1  UNL1        0.2769
     12 N          -9.5660  -20.7515   25.0444 N.pl3   1  UNL1       -0.3133
     13 O         -11.4332  -19.3140   23.9499 O.2     1  UNL1       -0.4480
     14 C         -11.9224  -17.9921   23.4369 C.3     1  UNL1        0.2383
     15 C         -11.0337  -16.7857   23.5054 C.3     1  UNL1        0.2277
     16 F         -11.5228  -15.4637   22.9925 F       1  UNL1       -0.2309
     17 H          -8.6617  -20.8273   25.4260 H       1  UNL1        0.1466
     18 H         -10.1493  -21.5434   24.9995 H       1  UNL1        0.1466
     19 C         -13.3003  -17.8766   22.8555 C.3     1  UNL1        0.2394
     20 F         -14.5001  -18.1752   23.7047 F       1  UNL1       -0.2302
     21 N          -4.5968  -16.2485   23.0963 N.am    1  UNL1       -0.2791
     22 C          -3.9624  -17.5691   22.7748 C.2     1  UNL1        0.2672
     23 O          -4.4838  -18.8254   23.4073 O.2     1  UNL1       -0.2682
     24 H          -4.2546  -15.4239   22.6812 H       1  UNL1        0.1552
     25 C          -2.8066  -17.6336   21.8210 C.ar    1  UNL1        0.1349
     26 C          -1.9812  -16.4088   21.5590 C.ar    1  UNL1        0.0261
     27 C          -0.8253  -16.4733   20.6050 C.ar    1  UNL1        0.0329
     28 C          -0.4949  -17.7625   19.9131 C.ar    1  UNL1        0.1592
     29 F           0.6609  -17.8269   18.9593 F       1  UNL1       -0.2025
     30 C          -1.3203  -18.9873   20.1752 C.ar    1  UNL1        0.1285
     31 N          -2.4761  -18.9228   21.1290 N.ar    1  UNL1       -0.2369
@<TRIPOS>BOND
     1     9     8    1
     2     9     1    1
     3     1     2   ar
     4     2     3   ar
     5     3    21    1
     6    21    22   am
     7    22    23    2
     8    22    25    1
     9    25    26   ar
    10    26    27   ar
    11    27    28   ar
    12    28    29    1
    13    28    30   ar
    14    30    31   ar
    15     3     4   ar
    16     4     5   ar
    17     5     6   ar
    18     6     7    1
    19     9    10    1
    20    10    11    2
    21    11    12    1
    22    11    13    1
    23    13    14    1
    24    14    19    1
    25    19    20    1
    26    14    15    1
    27    15    16    1
    28    15     9    1
    29     6     1   ar
    30    31    25   ar
    31    21    24    1
    32    12    17    1
    33    12    18    1
@<TRIPOS>MOLECULE
*****
 31 33 0 0 0
SMALL
GASTEIGER

@<TRIPOS>ATOM
      1 C          -9.8055  -19.2047   21.0928 C.ar    1  UNL1        0.0293
      2 C          -8.3974  -18.6931   21.1661 C.ar    1  UNL1        0.0145
      3 C          -7.4477  -18.9458   20.0329 C.ar    1  UNL1        0.0505
      4 C          -7.9061  -19.7102   18.8264 C.ar    1  UNL1        0.0170
      5 C          -9.3142  -20.2218   18.7531 C.ar    1  UNL1        0.0306
      6 C         -10.2639  -19.9691   19.8863 C.ar    1  UNL1        0.1380
      7 F         -11.6721  -20.4807   19.8130 F       1  UNL1       -0.2044
      8 C          -9.9098  -20.0333   22.8310 C.3     1  UNL1        0.0321
      9 C         -10.7553  -18.9520   22.2260 C.3     1  UNL1        0.1432
     10 N         -11.2709  -17.9585   21.2276 N.2     1  UNL1       -0.2214
     11 C         -12.4427  -17.0878   21.5724 C.2     1  UNL1        0.2769
     12 N         -12.9583  -16.0942   20.5738 N.pl3   1  UNL1       -0.3133
     13 O         -13.0988  -17.2106   22.9157 O.2     1  UNL1       -0.4480
     14 C         -12.5832  -18.2042   23.9141 C.3     1  UNL1        0.2383
     15 C         -11.4114  -19.0749   23.5694 C.3     1  UNL1        0.2277
     16 F         -10.8957  -20.0684   24.5678 F       1  UNL1       -0.2309
     17 H         -12.5276  -16.0136   19.6922 H       1  UNL1        0.1466
     18 H         -13.7273  -15.5227   20.8001 H       1  UNL1        0.1466
     19 C         -13.2393  -18.3270   25.2575 C.3     1  UNL1        0.2394
     20 F         -14.7045  -18.6341   25.3512 F       1  UNL1       -0.2302
     21 N          -6.0395  -18.4342   20.1062 N.am    1  UNL1       -0.2791
     22 C          -4.8923  -19.3994   20.1520 C.2     1  UNL1        0.2672
     23 O          -5.1533  -20.8764   20.1246 O.2     1  UNL1       -0.2682
     24 H          -5.8683  -17.4648   20.1241 H       1  UNL1        0.1552
     25 C          -3.4842  -18.8879   20.2253 C.ar    1  UNL1        0.1349
     26 C          -2.8273  -18.3216   19.0014 C.ar    1  UNL1        0.0261
     27 C          -1.4191  -17.8100   19.0747 C.ar    1  UNL1        0.0329
     28 C          -0.6678  -17.8647   20.3718 C.ar    1  UNL1        0.1592
     29 F           0.7403  -17.3532   20.4451 F       1  UNL1       -0.2025
     30 C          -1.3247  -18.4310   21.5957 C.ar    1  UNL1        0.1285
     31 N          -2.7328  -18.9426   21.5225 N.ar    1  UNL1       -0.2369
@<TRIPOS>BOND
     1     9     8    1
     2     9     1    1
     3     1     2   ar
     4     2     3   ar
     5     3    21    1
     6    21    22   am
     7    22    23    2
     8    22    25    1
     9    25    26   ar
    10    26    27   ar
    11    27    28   ar
    12    28    29    1
    13    28    30   ar
    14    30    31   ar
    15     3     4   ar
    16     4     5   ar
    17     5     6   ar
    18     6     7    1
    19     9    10    1
    20    10    11    2
    21    11    12    1
    22    11    13    1
    23    13    14    1
    24    14    19    1
    25    19    20    1
    26    14    15    1
    27    15    16    1
    28    15     9    1
    29     6     1   ar
    30    31    25   ar
    31    21    24    1
    32    12    17    1
    33    12    18    1
@<TRIPOS>MOLECULE
*****
 31 33 0 0 0
SMALL
GASTEIGER

@<TRIPOS>ATOM
      1 C          -9.9355  -19.0613   20.8697 C.ar    1  UNL1        0.0293
      2 C          -8.5249  -18.5627   20.9776 C.ar    1  UNL1        0.0145
      3 C          -7.5247  -18.9060   19.9138 C.ar    1  UNL1        0.0505
      4 C          -7.9351  -19.7479   18.7421 C.ar    1  UNL1        0.0170
      5 C          -9.3457  -20.2464   18.6342 C.ar    1  UNL1        0.0306
      6 C         -10.3459  -19.9031   19.6980 C.ar    1  UNL1        0.1380
      7 F         -11.7565  -20.4017   19.5901 F       1  UNL1       -0.2044
      8 C         -11.4075  -17.8160   20.8316 C.3     1  UNL1        0.0321
      9 C         -10.9358  -18.7180   21.9335 C.3     1  UNL1        0.1432
     10 N         -10.1168  -19.7391   22.6659 N.2     1  UNL1       -0.2214
     11 C         -10.4618  -20.1037   24.0794 C.2     1  UNL1        0.2769
     12 N          -9.6427  -21.1249   24.8118 N.pl3   1  UNL1       -0.3133
     13 O         -11.6259  -19.4471   24.7605 O.2     1  UNL1       -0.4480
     14 C         -12.4449  -18.4260   24.0281 C.3     1  UNL1        0.2383
     15 C         -12.0999  -18.0614   22.6146 C.3     1  UNL1        0.2277
     16 F         -12.9189  -17.0403   21.8821 F       1  UNL1       -0.2309
     17 H          -8.8787  -21.5558   24.3647 H       1  UNL1        0.1466
     18 H          -9.8691  -21.3642   25.7395 H       1  UNL1        0.1466
     19 C         -13.6090  -17.7695   24.7092 C.3     1  UNL1        0.2394
     20 F         -14.9627  -18.4143   24.6688 F       1  UNL1       -0.2302
     21 N          -6.1141  -18.4074   20.0216 N.am    1  UNL1       -0.2791
     22 C          -4.9804  -19.3831   20.1351 C.2     1  UNL1        0.2672
     23 O          -5.2574  -20.8573   20.1407 O.2     1  UNL1       -0.2682
     24 H          -5.9323  -17.4398   20.0180 H       1  UNL1        0.1552
     25 C          -3.5698  -18.8846   20.2430 C.ar    1  UNL1        0.1349
     26 C          -2.8772  -18.3265   19.0352 C.ar    1  UNL1        0.0261
     27 C          -1.4665  -17.8279   19.1431 C.ar    1  UNL1        0.0329
     28 C          -0.7486  -17.8876   20.4587 C.ar    1  UNL1        0.1592
     29 F           0.6620  -17.3890   20.5666 F       1  UNL1       -0.2025
     30 C          -1.4412  -18.4457   21.6665 C.ar    1  UNL1        0.1285
     31 N          -2.8518  -18.9442   21.5587 N.ar    1  UNL1       -0.2369
@<TRIPOS>BOND
     1     9     8    1
     2     9     1    1
     3     1     2   ar
     4     2     3   ar
     5     3    21    1
     6    21    22   am
     7    22    23    2
     8    22    25    1
     9    25    26   ar
    10    26    27   ar
    11    27    28   ar
    12    28    29    1
    13    28    30   ar
    14    30    31   ar
    15     3     4   ar
    16     4     5   ar
    17     5     6   ar
    18     6     7    1
    19     9    10    1
    20    10    11    2
    21    11    12    1
    22    11    13    1
    23    13    14    1
    24    14    19    1
    25    19    20    1
    26    14    15    1
    27    15    16    1
    28    15     9    1
    29     6     1   ar
    30    31    25   ar
    31    21    24    1
    32    12    17    1
    33    12    18    1
@<TRIPOS>MOLECULE
*****
 31 33 0 0 0
SMALL
GASTEIGER

@<TRIPOS>ATOM
      1 C           2.8707   -0.5678   20.3426 C.ar    1  UNL1        0.0293
      2 C           1.5300   -0.0915   20.8176 C.ar    1  UNL1        0.0145
      3 C           0.7287    0.8557   19.9746 C.ar    1  UNL1        0.0505
      4 C           1.2681    1.3265   18.6565 C.ar    1  UNL1        0.0170
      5 C           2.6088    0.8502   18.1814 C.ar    1  UNL1        0.0306
      6 C           3.4100   -0.0970   19.0245 C.ar    1  UNL1        0.1380
      7 F           4.7508   -0.5733   18.5495 F       1  UNL1       -0.2044
      8 C           3.6759   -0.3073   22.0754 C.3     1  UNL1        0.0321
      9 C           3.6720   -1.5150   21.1857 C.3     1  UNL1        0.1432
     10 N           3.3898   -2.3937   20.0033 N.2     1  UNL1       -0.2214
     11 C           3.9103   -3.8002   19.9729 C.2     1  UNL1        0.2769
     12 N           3.6281   -4.6789   18.7904 N.pl3   1  UNL1       -0.3133
     13 O           4.7130   -4.3279   21.1250 O.2     1  UNL1       -0.4480
     14 C           4.9952   -3.4492   22.3074 C.3     1  UNL1        0.2383
     15 C           4.4747   -2.0427   22.3378 C.3     1  UNL1        0.2277
     16 F           4.7569   -1.1639   23.5202 F       1  UNL1       -0.2309
     17 H           3.1012   -4.3326   18.0343 H       1  UNL1        0.1466
     18 H           3.9697   -5.6021   18.7704 H       1  UNL1        0.1466
     19 C           5.7979   -3.9769   23.4595 C.3     1  UNL1        0.2394
     20 F           7.0089   -4.8244   23.2040 F       1  UNL1       -0.2302
     21 N          -0.6120    1.3320   20.4496 N.am    1  UNL1       -0.2791
     22 C          -0.7512    2.6965   21.0568 C.2     1  UNL1        0.2672
     23 O           0.4504    3.5847   21.1891 O.2     1  UNL1       -0.2682
     24 H          -1.4007    0.7491   20.3627 H       1  UNL1        0.1552
     25 C          -2.0918    3.1729   21.5318 C.ar    1  UNL1        0.1349
     26 C          -2.2028    3.9440   22.8136 C.ar    1  UNL1        0.0261
     27 C          -3.5436    4.4204   23.2886 C.ar    1  UNL1        0.0329
     28 C          -4.7732    4.1257   22.4818 C.ar    1  UNL1        0.1592
     29 F          -6.1139    4.6020   22.9568 F       1  UNL1       -0.2025
     30 C          -4.6622    3.3546   21.1999 C.ar    1  UNL1        0.1285
     31 N          -3.3216    2.8782   20.7249 N.ar    1  UNL1       -0.2369
@<TRIPOS>BOND
     1     9     8    1
     2     9     1    1
     3     1     2   ar
     4     2     3   ar
     5     3    21    1
     6    21    22   am
     7    22    23    2
     8    22    25    1
     9    25    26   ar
    10    26    27   ar
    11    27    28   ar
    12    28    29    1
    13    28    30   ar
    14    30    31   ar
    15     3     4   ar
    16     4     5   ar
    17     5     6   ar
    18     6     7    1
    19     9    10    1
    20    10    11    2
    21    11    12    1
    22    11    13    1
    23    13    14    1
    24    14    19    1
    25    19    20    1
    26    14    15    1
    27    15    16    1
    28    15     9    1
    29     6     1   ar
    30    31    25   ar
    31    21    24    1
    32    12    17    1
    33    12    18    1
@<TRIPOS>MOLECULE
*****
 31 33 0 0 0
SMALL
GASTEIGER

@<TRIPOS>ATOM
      1 C           4.1426   -0.3924   18.8392 C.ar    1  UNL1        0.0293
      2 C           4.8170   -0.7845   20.1203 C.ar    1  UNL1        0.0145
      3 C           5.5786   -2.0741   20.2027 C.ar    1  UNL1        0.0505
      4 C           5.6657   -2.9716   19.0040 C.ar    1  UNL1        0.0170
      5 C           4.9914   -2.5794   17.7229 C.ar    1  UNL1        0.0306
      6 C           4.2298   -1.2898   17.6405 C.ar    1  UNL1        0.1380
      7 F           3.5553   -0.8976   16.3593 F       1  UNL1       -0.2044
      8 C           4.6774    1.3199   18.1315 C.3     1  UNL1        0.0321
      9 C           3.3810    0.8973   18.7568 C.3     1  UNL1        0.1432
     10 N           2.3492    0.0269   19.4106 N.2     1  UNL1       -0.2214
     11 C           1.0060    0.5928   19.7648 C.2     1  UNL1        0.2769
     12 N          -0.0259   -0.2778   20.4187 N.pl3   1  UNL1       -0.3133
     13 O           0.6946    2.0292   19.4652 O.2     1  UNL1       -0.4480
     14 C           1.7265    2.8997   18.8114 C.3     1  UNL1        0.2383
     15 C           3.0697    2.3338   18.4572 C.3     1  UNL1        0.2277
     16 F           4.1016    3.2042   17.8033 F       1  UNL1       -0.2309
     17 H           0.1785   -1.2205   20.6153 H       1  UNL1        0.1466
     18 H          -0.9075    0.0936   20.6512 H       1  UNL1        0.1466
     19 C           1.4151    4.3362   18.5118 C.3     1  UNL1        0.2394
     20 F           1.7168    4.9019   17.1557 F       1  UNL1       -0.2302
     21 N           6.2530   -2.4664   21.4839 N.am    1  UNL1       -0.2791
     22 C           5.7241   -3.6167   22.2883 C.2     1  UNL1        0.2672
     23 O           4.5208   -4.3748   21.8114 O.2     1  UNL1       -0.2682
     24 H           7.0428   -1.9688   21.7968 H       1  UNL1        0.1552
     25 C           6.3985   -4.0090   23.5694 C.ar    1  UNL1        0.1349
     26 C           6.1702   -3.2039   24.8142 C.ar    1  UNL1        0.0261
     27 C           6.8446   -3.5962   26.0954 C.ar    1  UNL1        0.0329
     28 C           7.7473   -4.7935   26.1317 C.ar    1  UNL1        0.1592
     29 F           8.4217   -5.1858   27.4128 F       1  UNL1       -0.2025
     30 C           7.9757   -5.5986   24.8868 C.ar    1  UNL1        0.1285
     31 N           7.3013   -5.2064   23.6057 N.ar    1  UNL1       -0.2369
@<TRIPOS>BOND
     1     9     8    1
     2     9     1    1
     3     1     2   ar
     4     2     3   ar
     5     3    21    1
     6    21    22   am
     7    22    23    2
     8    22    25    1
     9    25    26   ar
    10    26    27   ar
    11    27    28   ar
    12    28    29    1
    13    28    30   ar
    14    30    31   ar
    15     3     4   ar
    16     4     5   ar
    17     5     6   ar
    18     6     7    1
    19     9    10    1
    20    10    11    2
    21    11    12    1
    22    11    13    1
    23    13    14    1
    24    14    19    1
    25    19    20    1
    26    14    15    1
    27    15    16    1
    28    15     9    1
    29     6     1   ar
    30    31    25   ar
    31    21    24    1
    32    12    17    1
    33    12    18    1
@<TRIPOS>MOLECULE
*****
 31 33 0 0 0
SMALL
GASTEIGER

@<TRIPOS>ATOM
      1 C           3.5065   -0.5974   19.2936 C.ar    1  UNL1        0.0293
      2 C           4.2600   -1.0500   20.5090 C.ar    1  UNL1        0.0145
      3 C           5.4019   -2.0124   20.3682 C.ar    1  UNL1        0.0505
      4 C           5.7903   -2.5221   19.0120 C.ar    1  UNL1        0.0170
      5 C           5.0368   -2.0695   17.7966 C.ar    1  UNL1        0.0306
      6 C           3.8949   -1.1071   17.9374 C.ar    1  UNL1        0.1380
      7 F           3.1414   -0.6544   16.7219 F       1  UNL1       -0.2044
      8 C           1.7278   -0.8769   19.9841 C.3     1  UNL1        0.0321
      9 C           2.3646    0.3651   19.4343 C.3     1  UNL1        0.1432
     10 N           3.3979    1.2727   18.8357 N.2     1  UNL1       -0.2214
     11 C           3.0682    2.7115   18.5687 C.2     1  UNL1        0.2769
     12 N           4.1015    3.6191   17.9701 N.pl3   1  UNL1       -0.3133
     13 O           1.7051    3.2425   18.9004 O.2     1  UNL1       -0.4480
     14 C           0.6718    2.3349   19.4991 C.3     1  UNL1        0.2383
     15 C           1.0015    0.8961   19.7660 C.3     1  UNL1        0.2277
     16 F          -0.0318   -0.0116   20.3647 F       1  UNL1       -0.2309
     17 H           4.9962    3.2705   17.7524 H       1  UNL1        0.1466
     18 H           3.8851    4.5634   17.7948 H       1  UNL1        0.1466
     19 C          -0.6913    2.8660   19.8308 C.3     1  UNL1        0.2394
     20 F          -1.3005    2.5831   21.1720 F       1  UNL1       -0.2302
     21 N           6.1555   -2.4651   21.5837 N.am    1  UNL1       -0.2791
     22 C           5.7438   -3.7184   22.2977 C.2     1  UNL1        0.2672
     23 O           4.5786   -4.5190   21.7963 O.2     1  UNL1       -0.2682
     24 H           6.9202   -1.9396   21.9128 H       1  UNL1        0.1552
     25 C           6.4973   -4.1711   23.5131 C.ar    1  UNL1        0.1349
     26 C           6.3368   -3.4374   24.8116 C.ar    1  UNL1        0.0261
     27 C           7.0903   -3.8902   26.0270 C.ar    1  UNL1        0.0329
     28 C           8.0044   -5.0765   25.9440 C.ar    1  UNL1        0.1592
     29 F           8.7579   -5.5292   27.1594 F       1  UNL1       -0.2025
     30 C           8.1650   -5.8102   24.6455 C.ar    1  UNL1        0.1285
     31 N           7.4115   -5.3575   23.4301 N.ar    1  UNL1       -0.2369
@<TRIPOS>BOND
     1     9     8    1
     2     9     1    1
     3     1     2   ar
     4     2     3   ar
     5     3    21    1
     6    21    22   am
     7    22    23    2
     8    22    25    1
     9    25    26   ar
    10    26    27   ar
    11    27    28   ar
    12    28    29    1
    13    28    30   ar
    14    30    31   ar
    15     3     4   ar
    16     4     5   ar
    17     5     6   ar
    18     6     7    1
    19     9    10    1
    20    10    11    2
    21    11    12    1
    22    11    13    1
    23    13    14    1
    24    14    19    1
    25    19    20    1
    26    14    15    1
    27    15    16    1
    28    15     9    1
    29     6     1   ar
    30    31    25   ar
    31    21    24    1
    32    12    17    1
    33    12    18    1
@<TRIPOS>MOLECULE
*****
 31 33 0 0 0
SMALL
GASTEIGER

@<TRIPOS>ATOM
      1 C           2.9193    0.2635   21.0007 C.ar    1  UNL1        0.0293
      2 C           1.4456    0.5303   20.9171 C.ar    1  UNL1        0.0145
      3 C           0.9019    1.8694   21.3184 C.ar    1  UNL1        0.0505
      4 C           1.8319    2.9418   21.8034 C.ar    1  UNL1        0.0170
      5 C           3.3056    2.6750   21.8870 C.ar    1  UNL1        0.0306
      6 C           3.8493    1.3359   21.4857 C.ar    1  UNL1        0.1380
      7 F           5.3231    1.0690   21.5693 F       1  UNL1       -0.2044
      8 C           3.2687   -1.3033   22.0692 C.3     1  UNL1        0.0321
      9 C           3.4631   -1.0757   20.5994 C.3     1  UNL1        0.1432
     10 N           3.4686   -0.3829   19.2689 N.2     1  UNL1       -0.2214
     11 C           3.9504   -1.1084   18.0476 C.2     1  UNL1        0.2769
     12 N           3.9559   -0.4156   16.7172 N.pl3   1  UNL1       -0.3133
     13 O           4.4266   -2.5266   18.1568 O.2     1  UNL1       -0.4480
     14 C           4.4211   -3.2193   19.4872 C.3     1  UNL1        0.2383
     15 C           3.9393   -2.4939   20.7085 C.3     1  UNL1        0.2277
     16 F           3.9338   -3.1865   22.0390 F       1  UNL1       -0.2309
     17 H           3.6434    0.5152   16.6455 H       1  UNL1        0.1466
     18 H           4.2721   -0.8918   15.9156 H       1  UNL1        0.1466
     19 C           4.8974   -4.6376   19.5964 C.3     1  UNL1        0.2394
     20 F           4.7365   -5.5742   18.4358 F       1  UNL1       -0.2302
     21 N          -0.5718    2.1363   21.2348 N.am    1  UNL1       -0.2791
     22 C          -1.1127    3.0269   20.1558 C.2     1  UNL1        0.2672
     23 O          -0.1798    3.6508   19.1605 O.2     1  UNL1       -0.2682
     24 H          -1.1841    1.7268   21.8880 H       1  UNL1        0.1552
     25 C          -2.5863    3.2938   20.0721 C.ar    1  UNL1        0.1349
     26 C          -3.1575    3.9767   18.8650 C.ar    1  UNL1        0.0261
     27 C          -4.6313    4.2436   18.7813 C.ar    1  UNL1        0.0329
     28 C          -5.5338    3.8275   19.9049 C.ar    1  UNL1        0.1592
     29 F          -7.0074    4.0943   19.8212 F       1  UNL1       -0.2025
     30 C          -4.9626    3.1445   21.1120 C.ar    1  UNL1        0.1285
     31 N          -3.4889    2.8777   21.1957 N.ar    1  UNL1       -0.2369
@<TRIPOS>BOND
     1     9     8    1
     2     9     1    1
     3     1     2   ar
     4     2     3   ar
     5     3    21    1
     6    21    22   am
     7    22    23    2
     8    22    25    1
     9    25    26   ar
    10    26    27   ar
    11    27    28   ar
    12    28    29    1
    13    28    30   ar
    14    30    31   ar
    15     3     4   ar
    16     4     5   ar
    17     5     6   ar
    18     6     7    1
    19     9    10    1
    20    10    11    2
    21    11    12    1
    22    11    13    1
    23    13    14    1
    24    14    19    1
    25    19    20    1
    26    14    15    1
    27    15    16    1
    28    15     9    1
    29     6     1   ar
    30    31    25   ar
    31    21    24    1
    32    12    17    1
    33    12    18    1
@<TRIPOS>MOLECULE
*****
 31 33 0 0 0
SMALL
GASTEIGER

@<TRIPOS>ATOM
      1 C          -1.7057    3.5883   20.7232 C.ar    1  UNL1        0.0293
      2 C          -0.8721    2.3677   20.4683 C.ar    1  UNL1        0.0145
      3 C           0.5356    2.3002   20.9821 C.ar    1  UNL1        0.0505
      4 C           1.1095    3.4534   21.7506 C.ar    1  UNL1        0.0170
      5 C           0.2759    4.6741   22.0054 C.ar    1  UNL1        0.0306
      6 C          -1.1318    4.7415   21.4917 C.ar    1  UNL1        0.1380
      7 F          -1.9655    5.9622   21.7465 F       1  UNL1       -0.2044
      8 C          -2.3617    3.9807   18.9527 C.3     1  UNL1        0.0321
      9 C          -3.1135    3.6558   20.2094 C.3     1  UNL1        0.1432
     10 N          -3.3763    3.3075   21.6445 N.2     1  UNL1       -0.2214
     11 C          -4.7858    3.1395   22.1295 C.2     1  UNL1        0.2769
     12 N          -5.0487    2.7912   23.5646 N.pl3   1  UNL1       -0.3133
     13 O          -5.9324    3.3198   21.1793 O.2     1  UNL1       -0.4480
     14 C          -5.6695    3.6681   19.7442 C.3     1  UNL1        0.2383
     15 C          -4.2601    3.8361   19.2592 C.3     1  UNL1        0.2277
     16 F          -3.9971    4.1844   17.8241 F       1  UNL1       -0.2309
     17 H          -4.2961    2.6729   24.1883 H       1  UNL1        0.1466
     18 H          -5.9737    2.6809   23.8830 H       1  UNL1        0.1466
     19 C          -6.8161    3.8484   18.7940 C.3     1  UNL1        0.2394
     20 F          -6.8299    5.0121   17.8475 F       1  UNL1       -0.2302
     21 N           1.3693    1.0795   20.7272 N.am    1  UNL1       -0.2791
     22 C           1.9897    0.8632   19.3788 C.2     1  UNL1        0.2672
     23 O           1.7764    1.8675   18.2852 O.2     1  UNL1       -0.2682
     24 H           1.5093    0.4204   21.4450 H       1  UNL1        0.1552
     25 C           2.8235   -0.3574   19.1240 C.ar    1  UNL1        0.1349
     26 C           2.6966   -1.5530   20.0209 C.ar    1  UNL1        0.0261
     27 C           3.5303   -2.7737   19.7660 C.ar    1  UNL1        0.0329
     28 C           4.4909   -2.7987   18.6142 C.ar    1  UNL1        0.1592
     29 F           5.3246   -4.0193   18.3594 F       1  UNL1       -0.2025
     30 C           4.6178   -1.6031   17.7173 C.ar    1  UNL1        0.1285
     31 N           3.7841   -0.3825   17.9722 N.ar    1  UNL1       -0.2369
@<TRIPOS>BOND
     1     9     8    1
     2     9     1    1
     3     1     2   ar
     4     2     3   ar
     5     3    21    1
     6    21    22   am
     7    22    23    2
     8    22    25    1
     9    25    26   ar
    10    26    27   ar
    11    27    28   ar
    12    28    29    1
    13    28    30   ar
    14    30    31   ar
    15     3     4   ar
    16     4     5   ar
    17     5     6   ar
    18     6     7    1
    19     9    10    1
    20    10    11    2
    21    11    12    1
    22    11    13    1
    23    13    14    1
    24    14    19    1
    25    19    20    1
    26    14    15    1
    27    15    16    1
    28    15     9    1
    29     6     1   ar
    30    31    25   ar
    31    21    24    1
    32    12    17    1
    33    12    18    1
