@<TRIPOS>MOLECULE
*****
 30 33 0 0 0
SMALL
GASTEIGER

@<TRIPOS>ATOM
      1 C           8.3876   -8.1058   26.9581 C.ar    1  UNL1        0.0792
      2 C           8.0959   -7.9920   25.4912 C.ar    1  UNL1        0.0210
      3 C           8.1764   -6.6570   24.8118 C.ar    1  UNL1        0.0553
      4 C           8.5486   -5.4359   25.5994 C.ar    1  UNL1        0.2045
      5 C           8.8403   -5.5498   27.0664 C.ar    1  UNL1        0.1507
      6 N           8.7598   -6.8847   27.7457 N.ar    1  UNL1       -0.2419
      7 S           8.6291   -4.1010   24.9201 S.O     1  UNL1        0.0765
      8 O           9.5047   -3.0228   25.4866 O.co2   1  UNL1       -0.6736
      9 C           7.8341   -3.8443   23.6743 C.ar    1  UNL1        0.1900
     10 C           6.3410   -3.7222   23.7493 C.ar    1  UNL1        0.0821
     11 C           5.5460   -3.4655   22.5035 C.ar    1  UNL1        0.1467
     12 F           4.0528   -3.3433   22.5784 F       1  UNL1       -0.2039
     13 C           6.2441   -3.3309   21.1827 C.ar    1  UNL1        0.0595
     14 C           7.7372   -3.4531   21.1077 C.ar    1  UNL1        0.1467
     15 F           8.4354   -3.3186   19.7869 F       1  UNL1       -0.2039
     16 C           8.5322   -3.7098   22.3535 C.ar    1  UNL1        0.0821
     17 C           8.3071   -9.4408   27.6375 C.3     1  UNL1        0.1361
     18 O           8.2019  -12.3967   28.1384 O.2     1  UNL1       -0.2668
     19 C           6.9303  -11.6085   28.0316 C.2     1  UNL1        0.2809
     20 N           6.9828  -10.1305   27.7812 N.am    1  UNL1       -0.2931
     21 H           6.1482   -9.6131   27.7111 H       1  UNL1        0.1502
     22 C           5.6060  -12.2982   28.1753 C.ar    1  UNL1        0.1984
     23 C           4.4990  -11.8966   29.1044 C.ar    1  UNL1        0.0453
     24 C           3.3650  -12.8608   28.9185 C.ar    1  UNL1        0.0409
     25 C           2.0151  -12.9594   29.5649 C.ar    1  UNL1        0.0238
     26 C           1.0714  -14.0554   29.1674 C.ar    1  UNL1        0.0991
     27 N           1.4777  -15.0529   28.1234 N.ar    1  UNL1       -0.2391
     28 C           2.8276  -14.9544   27.4769 C.ar    1  UNL1        0.1362
     29 C           3.7713  -13.8583   27.8745 C.ar    1  UNL1        0.1646
     30 O           5.1563  -13.5106   27.4152 O.2     1  UNL1       -0.4473
@<TRIPOS>UNITY_ATOM_ATTR
7 1
charge 1
8 1
charge -1
@<TRIPOS>BOND
     1    18    19    2
     2    19    20   am
     3    20    17    1
     4    17     1    1
     5     1     2   ar
     6     2     3   ar
     7     3     4   ar
     8     4     7    1
     9     7     8    2
    10     7     9    1
    11     9    10   ar
    12    10    11   ar
    13    11    12    1
    14    11    13   ar
    15    13    14   ar
    16    14    15    1
    17    14    16   ar
    18     4     5   ar
    19     5     6   ar
    20    19    22    1
    21    22    23   ar
    22    23    24   ar
    23    24    25   ar
    24    25    26   ar
    25    26    27   ar
    26    27    28   ar
    27    28    29   ar
    28    29    30   ar
    29     6     1   ar
    30    30    22   ar
    31    16     9   ar
    32    29    24   ar
    33    20    21    1
@<TRIPOS>MOLECULE
*****
 30 33 0 0 0
SMALL
GASTEIGER

@<TRIPOS>ATOM
      1 C           6.9418   -4.0656   22.7200 C.ar    1  UNL1        0.0792
      2 C           5.5969   -3.5979   23.1917 C.ar    1  UNL1        0.0210
      3 C           4.5073   -3.3235   22.1980 C.ar    1  UNL1        0.0553
      4 C           4.7626   -3.5167   20.7326 C.ar    1  UNL1        0.2045
      5 C           6.1076   -3.9844   20.2609 C.ar    1  UNL1        0.1507
      6 N           7.1971   -4.2588   21.2546 N.ar    1  UNL1       -0.2419
      7 S           3.6731   -3.2423   19.7388 S.O     1  UNL1        0.0765
      8 O           2.9991   -4.3804   19.0314 O.co2   1  UNL1       -0.6736
      9 C           3.2575   -1.8297   19.4526 C.ar    1  UNL1        0.1900
     10 C           1.9388   -1.3197   19.9537 C.ar    1  UNL1        0.0821
     11 C           1.5233    0.0929   19.6674 C.ar    1  UNL1        0.1467
     12 F           0.2046    0.6029   20.1685 F       1  UNL1       -0.2039
     13 C           2.4263    0.9954   18.8800 C.ar    1  UNL1        0.0595
     14 C           3.7449    0.4854   18.3789 C.ar    1  UNL1        0.1467
     15 F           4.6479    1.3879   17.5915 F       1  UNL1       -0.2039
     16 C           4.1605   -0.9272   18.6652 C.ar    1  UNL1        0.0821
     17 C           8.0314   -4.3400   23.7138 C.3     1  UNL1        0.1361
     18 O           7.3222   -6.6180   25.5324 O.2     1  UNL1       -0.2668
     19 C           7.4411   -5.2278   26.0830 C.2     1  UNL1        0.2809
     20 N           7.7957   -4.0888   25.1737 N.am    1  UNL1       -0.2931
     21 H           7.8738   -3.1764   25.5350 H       1  UNL1        0.1502
     22 C           7.2054   -4.9766   27.5429 C.ar    1  UNL1        0.1984
     23 C           6.8238   -3.6644   28.1614 C.ar    1  UNL1        0.0453
     24 C           6.6925   -3.8703   29.6414 C.ar    1  UNL1        0.0409
     25 C           6.3382   -2.9331   30.7576 C.ar    1  UNL1        0.0238
     26 C           6.2843   -3.4353   32.1700 C.ar    1  UNL1        0.0991
     27 N           6.5847   -4.8747   32.4662 N.ar    1  UNL1       -0.2391
     28 C           6.9390   -5.8120   31.3500 C.ar    1  UNL1        0.1362
     29 C           6.9929   -5.3098   29.9376 C.ar    1  UNL1        0.1646
     30 O           7.3099   -5.9935   28.6406 O.2     1  UNL1       -0.4473
@<TRIPOS>UNITY_ATOM_ATTR
7 1
charge 1
8 1
charge -1
@<TRIPOS>BOND
     1    18    19    2
     2    19    20   am
     3    20    17    1
     4    17     1    1
     5     1     2   ar
     6     2     3   ar
     7     3     4   ar
     8     4     7    1
     9     7     8    2
    10     7     9    1
    11     9    10   ar
    12    10    11   ar
    13    11    12    1
    14    11    13   ar
    15    13    14   ar
    16    14    15    1
    17    14    16   ar
    18     4     5   ar
    19     5     6   ar
    20    19    22    1
    21    22    23   ar
    22    23    24   ar
    23    24    25   ar
    24    25    26   ar
    25    26    27   ar
    26    27    28   ar
    27    28    29   ar
    28    29    30   ar
    29     6     1   ar
    30    30    22   ar
    31    16     9   ar
    32    29    24   ar
    33    20    21    1
@<TRIPOS>MOLECULE
*****
 30 33 0 0 0
SMALL
GASTEIGER

@<TRIPOS>ATOM
      1 C           6.9772   -3.7879   20.6329 C.ar    1  UNL1        0.0792
      2 C           7.2941   -2.3491   20.3514 C.ar    1  UNL1        0.0210
      3 C           6.3503   -1.5197   19.5319 C.ar    1  UNL1        0.0553
      4 C           5.0896   -2.1291   18.9941 C.ar    1  UNL1        0.2045
      5 C           4.7727   -3.5680   19.2758 C.ar    1  UNL1        0.1507
      6 N           5.7165   -4.3974   20.0951 N.ar    1  UNL1       -0.2419
      7 S           4.1458   -1.2998   18.1748 S.O     1  UNL1        0.0765
      8 O           4.2828   -1.2627   16.6815 O.co2   1  UNL1       -0.6736
      9 C           3.0650   -0.5075   18.8487 C.ar    1  UNL1        0.1900
     10 C           2.1698    0.3813   18.0372 C.ar    1  UNL1        0.0821
     11 C           1.0889    1.1736   18.7112 C.ar    1  UNL1        0.1467
     12 F           0.1937    2.0625   17.8998 F       1  UNL1       -0.2039
     13 C           0.9034    1.0770   20.1965 C.ar    1  UNL1        0.0595
     14 C           1.7987    0.1881   21.0079 C.ar    1  UNL1        0.1467
     15 F           1.6131    0.0915   22.4933 F       1  UNL1       -0.2039
     16 C           2.8794   -0.6041   20.3341 C.ar    1  UNL1        0.0821
     17 C           7.9210   -4.6173   21.4523 C.3     1  UNL1        0.1361
     18 O           8.4985   -7.1469   22.9582 O.2     1  UNL1       -0.2668
     19 C           8.0782   -5.9123   23.6992 C.2     1  UNL1        0.2809
     20 N           7.7894   -4.6475   22.9463 N.am    1  UNL1       -0.2931
     21 H           7.5135   -3.8372   23.4326 H       1  UNL1        0.1502
     22 C           7.9466   -5.9425   25.1931 C.ar    1  UNL1        0.1984
     23 C           6.9079   -5.2230   26.0015 C.ar    1  UNL1        0.0453
     24 C           7.1500   -5.5333   27.4489 C.ar    1  UNL1        0.0409
     25 C           6.4419   -5.1038   28.6995 C.ar    1  UNL1        0.0238
     26 C           6.9221   -5.5856   30.0364 C.ar    1  UNL1        0.0991
     27 N           8.1103   -6.4969   30.1226 N.ar    1  UNL1       -0.2391
     28 C           8.8184   -6.9265   28.8720 C.ar    1  UNL1        0.1362
     29 C           8.3382   -6.4446   27.5352 C.ar    1  UNL1        0.1646
     30 O           8.8306   -6.6975   26.1410 O.2     1  UNL1       -0.4473
@<TRIPOS>UNITY_ATOM_ATTR
7 1
charge 1
8 1
charge -1
@<TRIPOS>BOND
     1    18    19    2
     2    19    20   am
     3    20    17    1
     4    17     1    1
     5     1     2   ar
     6     2     3   ar
     7     3     4   ar
     8     4     7    1
     9     7     8    2
    10     7     9    1
    11     9    10   ar
    12    10    11   ar
    13    11    12    1
    14    11    13   ar
    15    13    14   ar
    16    14    15    1
    17    14    16   ar
    18     4     5   ar
    19     5     6   ar
    20    19    22    1
    21    22    23   ar
    22    23    24   ar
    23    24    25   ar
    24    25    26   ar
    25    26    27   ar
    26    27    28   ar
    27    28    29   ar
    28    29    30   ar
    29     6     1   ar
    30    30    22   ar
    31    16     9   ar
    32    29    24   ar
    33    20    21    1
@<TRIPOS>MOLECULE
*****
 30 33 0 0 0
SMALL
GASTEIGER

@<TRIPOS>ATOM
      1 C           1.5183    2.9134   19.0003 C.ar    1  UNL1        0.0792
      2 C           0.7494    1.6634   18.6898 C.ar    1  UNL1        0.0210
      3 C           1.4752    0.4254   18.2531 C.ar    1  UNL1        0.0553
      4 C           2.9698    0.4374   18.1268 C.ar    1  UNL1        0.2045
      5 C           3.7387    1.6874   18.4373 C.ar    1  UNL1        0.1507
      6 N           3.0129    2.9254   18.8740 N.ar    1  UNL1       -0.2419
      7 S           3.6955   -0.8005   17.6901 S.O     1  UNL1        0.0765
      8 O           4.1757   -0.9285   16.2748 O.co2   1  UNL1       -0.6736
      9 C           3.9411   -1.9105   18.6686 C.ar    1  UNL1        0.1900
     10 C           4.3032   -3.2796   18.1744 C.ar    1  UNL1        0.0821
     11 C           4.5488   -4.3896   19.1531 C.ar    1  UNL1        0.1467
     12 F           4.9108   -5.7588   18.6589 F       1  UNL1       -0.2039
     13 C           4.4324   -4.1304   20.6259 C.ar    1  UNL1        0.0595
     14 C           4.0704   -2.7612   21.1201 C.ar    1  UNL1        0.1467
     15 F           3.9539   -2.5019   22.5929 F       1  UNL1       -0.2039
     16 C           3.8247   -1.6512   20.1415 C.ar    1  UNL1        0.0821
     17 C           0.7925    4.1514   19.4371 C.3     1  UNL1        0.1361
     18 O          -2.1437    3.5398   19.4989 O.2     1  UNL1       -0.2668
     19 C          -1.4173    3.8596   20.7717 C.2     1  UNL1        0.2809
     20 N           0.0508    4.1653   20.7408 N.am    1  UNL1       -0.2931
     21 H           0.5276    4.3752   21.5761 H       1  UNL1        0.1502
     22 C          -2.1591    3.8735   22.0753 C.ar    1  UNL1        0.1984
     23 C          -1.5408    3.9256   23.4410 C.ar    1  UNL1        0.0453
     24 C          -2.6489    3.9221   24.4520 C.ar    1  UNL1        0.0409
     25 C          -2.6397    3.9613   25.9514 C.ar    1  UNL1        0.0238
     26 C          -3.9336    3.9463   26.7100 C.ar    1  UNL1        0.0991
     27 N          -5.2368    3.8921   25.9691 N.ar    1  UNL1       -0.2391
     28 C          -5.2460    3.8529   24.4697 C.ar    1  UNL1        0.1362
     29 C          -3.9521    3.8679   23.7111 C.ar    1  UNL1        0.1646
     30 O          -3.6493    3.8379   22.2423 O.2     1  UNL1       -0.4473
@<TRIPOS>UNITY_ATOM_ATTR
7 1
charge 1
8 1
charge -1
@<TRIPOS>BOND
     1    18    19    2
     2    19    20   am
     3    20    17    1
     4    17     1    1
     5     1     2   ar
     6     2     3   ar
     7     3     4   ar
     8     4     7    1
     9     7     8    2
    10     7     9    1
    11     9    10   ar
    12    10    11   ar
    13    11    12    1
    14    11    13   ar
    15    13    14   ar
    16    14    15    1
    17    14    16   ar
    18     4     5   ar
    19     5     6   ar
    20    19    22    1
    21    22    23   ar
    22    23    24   ar
    23    24    25   ar
    24    25    26   ar
    25    26    27   ar
    26    27    28   ar
    27    28    29   ar
    28    29    30   ar
    29     6     1   ar
    30    30    22   ar
    31    16     9   ar
    32    29    24   ar
    33    20    21    1
@<TRIPOS>MOLECULE
*****
 30 33 0 0 0
SMALL
GASTEIGER

@<TRIPOS>ATOM
      1 C           6.9641   -4.8400   26.8183 C.ar    1  UNL1        0.0792
      2 C           6.5371   -3.6105   27.5639 C.ar    1  UNL1        0.0210
      3 C           6.5003   -3.6177   29.0635 C.ar    1  UNL1        0.0553
      4 C           6.8905   -4.8544   29.8174 C.ar    1  UNL1        0.2045
      5 C           7.3175   -6.0839   29.0717 C.ar    1  UNL1        0.1507
      6 N           7.3543   -6.0767   27.5722 N.ar    1  UNL1       -0.2419
      7 S           6.8537   -4.8616   31.3169 S.O     1  UNL1        0.0765
      8 O           6.8309   -6.1642   32.0603 O.co2   1  UNL1       -0.6736
      9 C           6.8396   -3.5662   32.0729 C.ar    1  UNL1        0.1900
     10 C           5.5484   -3.0270   32.6132 C.ar    1  UNL1        0.0821
     11 C           5.5344   -1.7315   33.3693 C.ar    1  UNL1        0.1467
     12 F           4.2431   -1.1924   33.9096 F       1  UNL1       -0.2039
     13 C           6.8117   -0.9753   33.5851 C.ar    1  UNL1        0.0595
     14 C           8.1029   -1.5144   33.0448 C.ar    1  UNL1        0.1467
     15 F           9.3802   -0.7582   33.2606 F       1  UNL1       -0.2039
     16 C           8.1170   -2.8098   32.2887 C.ar    1  UNL1        0.0821
     17 C           7.0009   -4.8328   25.3187 C.3     1  UNL1        0.1361
     18 O           7.0721   -4.8210   22.3196 O.2     1  UNL1       -0.2668
     19 C           6.1065   -3.9359   23.0504 C.2     1  UNL1        0.2809
     20 N           6.0709   -3.9418   24.5499 N.am    1  UNL1       -0.2931
     21 H           5.4370   -3.3609   25.0295 H       1  UNL1        0.1502
     22 C           5.1764   -3.0449   22.2816 C.ar    1  UNL1        0.1984
     23 C           4.1594   -2.1133   22.8713 C.ar    1  UNL1        0.0453
     24 C           3.4544   -1.4216   21.7423 C.ar    1  UNL1        0.0409
     25 C           2.3583   -0.3980   21.7203 C.ar    1  UNL1        0.0238
     26 C           1.8435    0.1216   20.4108 C.ar    1  UNL1        0.0991
     27 N           2.4249   -0.3825   19.1232 N.ar    1  UNL1       -0.2391
     28 C           3.5210   -1.4062   19.1451 C.ar    1  UNL1        0.1362
     29 C           4.0358   -1.9258   20.4547 C.ar    1  UNL1        0.1646
     30 O           5.1000   -2.9290   20.7880 O.2     1  UNL1       -0.4473
@<TRIPOS>UNITY_ATOM_ATTR
7 1
charge 1
8 1
charge -1
@<TRIPOS>BOND
     1    18    19    2
     2    19    20   am
     3    20    17    1
     4    17     1    1
     5     1     2   ar
     6     2     3   ar
     7     3     4   ar
     8     4     7    1
     9     7     8    2
    10     7     9    1
    11     9    10   ar
    12    10    11   ar
    13    11    12    1
    14    11    13   ar
    15    13    14   ar
    16    14    15    1
    17    14    16   ar
    18     4     5   ar
    19     5     6   ar
    20    19    22    1
    21    22    23   ar
    22    23    24   ar
    23    24    25   ar
    24    25    26   ar
    25    26    27   ar
    26    27    28   ar
    27    28    29   ar
    28    29    30   ar
    29     6     1   ar
    30    30    22   ar
    31    16     9   ar
    32    29    24   ar
    33    20    21    1
@<TRIPOS>MOLECULE
*****
 30 33 0 0 0
SMALL
GASTEIGER

@<TRIPOS>ATOM
      1 C           1.4488    3.0098   18.8602 C.ar    1  UNL1        0.0792
      2 C           2.9399    3.0188   18.6981 C.ar    1  UNL1        0.0210
      3 C           3.6602    1.7604   18.3135 C.ar    1  UNL1        0.0553
      4 C           2.8892    0.4931   18.0909 C.ar    1  UNL1        0.2045
      5 C           1.3980    0.4842   18.2530 C.ar    1  UNL1        0.1507
      6 N           0.6778    1.7425   18.6377 N.ar    1  UNL1       -0.2419
      7 S           3.6094   -0.7652   17.7063 S.O     1  UNL1        0.0765
      8 O           4.0610   -0.9680   16.2904 O.co2   1  UNL1       -0.6736
      9 C           3.8779   -1.8207   18.7377 C.ar    1  UNL1        0.1900
     10 C           3.7497   -1.4942   20.1961 C.ar    1  UNL1        0.0821
     11 C           4.0183   -2.5498   21.2274 C.ar    1  UNL1        0.1467
     12 F           3.8901   -2.2232   22.6858 F       1  UNL1       -0.2039
     13 C           4.4150   -3.9318   20.8004 C.ar    1  UNL1        0.0595
     14 C           4.5432   -4.2584   19.3420 C.ar    1  UNL1        0.1467
     15 F           4.9400   -5.6405   18.9149 F       1  UNL1       -0.2039
     16 C           4.2747   -3.2029   18.3106 C.ar    1  UNL1        0.0821
     17 C           0.7285    4.2681   19.2448 C.3     1  UNL1        0.1361
     18 O          -2.2168    3.8864   18.8216 O.2     1  UNL1       -0.2668
     19 C          -1.6770    4.0783   20.2078 C.2     1  UNL1        0.2809
     20 N          -0.2043    4.2692   20.4195 N.am    1  UNL1       -0.2931
     21 H           0.1500    4.3951   21.3293 H       1  UNL1        0.1502
     22 C          -2.6098    4.0794   21.3825 C.ar    1  UNL1        0.1984
     23 C          -4.0560    4.4770   21.3596 C.ar    1  UNL1        0.0453
     24 C          -4.6003    4.3264   22.7492 C.ar    1  UNL1        0.0409
     25 C          -5.9630    4.5727   23.3255 C.ar    1  UNL1        0.0238
     26 C          -6.2160    4.3281   24.7837 C.ar    1  UNL1        0.0991
     27 N          -5.1062    3.8373   25.6654 N.ar    1  UNL1       -0.2391
     28 C          -3.7435    3.5910   25.0891 C.ar    1  UNL1        0.1362
     29 C          -3.4905    3.8355   23.6310 C.ar    1  UNL1        0.1646
     30 O          -2.2604    3.6829   22.7863 O.2     1  UNL1       -0.4473
@<TRIPOS>UNITY_ATOM_ATTR
7 1
charge 1
8 1
charge -1
@<TRIPOS>BOND
     1    18    19    2
     2    19    20   am
     3    20    17    1
     4    17     1    1
     5     1     2   ar
     6     2     3   ar
     7     3     4   ar
     8     4     7    1
     9     7     8    2
    10     7     9    1
    11     9    10   ar
    12    10    11   ar
    13    11    12    1
    14    11    13   ar
    15    13    14   ar
    16    14    15    1
    17    14    16   ar
    18     4     5   ar
    19     5     6   ar
    20    19    22    1
    21    22    23   ar
    22    23    24   ar
    23    24    25   ar
    24    25    26   ar
    25    26    27   ar
    26    27    28   ar
    27    28    29   ar
    28    29    30   ar
    29     6     1   ar
    30    30    22   ar
    31    16     9   ar
    32    29    24   ar
    33    20    21    1
@<TRIPOS>MOLECULE
*****
 30 33 0 0 0
SMALL
GASTEIGER

@<TRIPOS>ATOM
      1 C           6.8461   -4.0785   23.1319 C.ar    1  UNL1        0.0792
      2 C           5.4475   -3.6281   23.4337 C.ar    1  UNL1        0.0210
      3 C           4.4578   -3.4570   22.3195 C.ar    1  UNL1        0.0553
      4 C           4.8667   -3.7364   20.9036 C.ar    1  UNL1        0.2045
      5 C           6.2654   -4.1869   20.6019 C.ar    1  UNL1        0.1507
      6 N           7.2550   -4.3579   21.7161 N.ar    1  UNL1       -0.2419
      7 S           3.8771   -3.5654   19.7895 S.O     1  UNL1        0.0765
      8 O           3.1293   -4.7538   19.2616 O.co2   1  UNL1       -0.6736
      9 C           3.6352   -2.2061   19.2033 C.ar    1  UNL1        0.1900
     10 C           2.5730   -1.3184   19.7809 C.ar    1  UNL1        0.0821
     11 C           2.3311    0.0410   19.1946 C.ar    1  UNL1        0.1467
     12 F           1.2689    0.9287   19.7722 F       1  UNL1       -0.2039
     13 C           3.1516    0.5126   18.0308 C.ar    1  UNL1        0.0595
     14 C           4.2138   -0.3751   17.4532 C.ar    1  UNL1        0.1467
     15 F           5.0342    0.0965   16.2894 F       1  UNL1       -0.2039
     16 C           4.4557   -1.7344   18.0394 C.ar    1  UNL1        0.0821
     17 C           7.8358   -4.2495   24.2461 C.3     1  UNL1        0.1361
     18 O           6.6107   -5.8708   26.4529 O.2     1  UNL1       -0.2668
     19 C           6.9634   -4.4318   26.6865 C.2     1  UNL1        0.2809
     20 N           7.5760   -3.6211   25.5831 N.am    1  UNL1       -0.2931
     21 H           7.8075   -2.6766   25.7364 H       1  UNL1        0.1502
     22 C           6.7036   -3.8034   28.0235 C.ar    1  UNL1        0.1984
     23 C           6.8738   -4.4672   29.3578 C.ar    1  UNL1        0.0453
     24 C           6.5033   -3.4750   30.4199 C.ar    1  UNL1        0.0409
     25 C           6.4779   -3.5694   31.9167 C.ar    1  UNL1        0.0238
     26 C           6.0532   -2.3866   32.7356 C.ar    1  UNL1        0.0991
     27 N           5.6540   -1.1094   32.0578 N.ar    1  UNL1       -0.2391
     28 C           5.6794   -1.0150   30.5610 C.ar    1  UNL1        0.1362
     29 C           6.1041   -2.1978   29.7421 C.ar    1  UNL1        0.1646
     30 O           6.2279   -2.4008   28.2610 O.2     1  UNL1       -0.4473
@<TRIPOS>UNITY_ATOM_ATTR
7 1
charge 1
8 1
charge -1
@<TRIPOS>BOND
     1    18    19    2
     2    19    20   am
     3    20    17    1
     4    17     1    1
     5     1     2   ar
     6     2     3   ar
     7     3     4   ar
     8     4     7    1
     9     7     8    2
    10     7     9    1
    11     9    10   ar
    12    10    11   ar
    13    11    12    1
    14    11    13   ar
    15    13    14   ar
    16    14    15    1
    17    14    16   ar
    18     4     5   ar
    19     5     6   ar
    20    19    22    1
    21    22    23   ar
    22    23    24   ar
    23    24    25   ar
    24    25    26   ar
    25    26    27   ar
    26    27    28   ar
    27    28    29   ar
    28    29    30   ar
    29     6     1   ar
    30    30    22   ar
    31    16     9   ar
    32    29    24   ar
    33    20    21    1
@<TRIPOS>MOLECULE
*****
 30 33 0 0 0
SMALL
GASTEIGER

@<TRIPOS>ATOM
      1 C           6.7393   -3.5371   20.3774 C.ar    1  UNL1        0.0792
      2 C           7.0965   -2.1180   20.0481 C.ar    1  UNL1        0.0210
      3 C           6.1836   -1.2950   19.1882 C.ar    1  UNL1        0.0553
      4 C           4.9135   -1.8912   18.6578 C.ar    1  UNL1        0.2045
      5 C           4.5563   -3.3104   18.9872 C.ar    1  UNL1        0.1507
      6 N           5.4692   -4.1333   19.8470 N.ar    1  UNL1       -0.2419
      7 S           4.0006   -1.0683   17.7979 S.O     1  UNL1        0.0765
      8 O           4.0563   -1.1995   16.3047 O.co2   1  UNL1       -0.6736
      9 C           3.0320   -0.1141   18.4313 C.ar    1  UNL1        0.1900
     10 C           3.1786    1.3619   18.2080 C.ar    1  UNL1        0.0821
     11 C           2.2098    2.3161   18.8415 C.ar    1  UNL1        0.1467
     12 F           2.3564    3.7922   18.6182 F       1  UNL1       -0.2039
     13 C           1.0946    1.7943   19.6981 C.ar    1  UNL1        0.0595
     14 C           0.9480    0.3183   19.9214 C.ar    1  UNL1        0.1467
     15 F          -0.1672   -0.2036   20.7780 F       1  UNL1       -0.2039
     16 C           1.9166   -0.6359   19.2880 C.ar    1  UNL1        0.0821
     17 C           7.6523   -4.3601   21.2373 C.3     1  UNL1        0.1361
     18 O           8.3804   -6.7894   22.8398 O.2     1  UNL1       -0.2668
     19 C           7.8515   -5.5669   23.5294 C.2     1  UNL1        0.2809
     20 N           7.4874   -4.3523   22.7282 N.am    1  UNL1       -0.2931
     21 H           7.1402   -3.5499   23.1808 H       1  UNL1        0.1502
     22 C           7.6866   -5.5591   25.0203 C.ar    1  UNL1        0.1984
     23 C           8.2986   -6.5358   25.9802 C.ar    1  UNL1        0.0453
     24 C           7.8710   -6.1535   27.3663 C.ar    1  UNL1        0.0409
     25 C           8.1664   -6.7532   28.7090 C.ar    1  UNL1        0.0238
     26 C           7.5855   -6.1399   29.9485 C.ar    1  UNL1        0.0991
     27 N           6.7092   -4.9269   29.8452 N.ar    1  UNL1       -0.2391
     28 C           6.4139   -4.3271   28.5024 C.ar    1  UNL1        0.1362
     29 C           6.9948   -4.9405   27.2630 C.ar    1  UNL1        0.1646
     30 O           6.8808   -4.5731   25.8131 O.2     1  UNL1       -0.4473
@<TRIPOS>UNITY_ATOM_ATTR
7 1
charge 1
8 1
charge -1
@<TRIPOS>BOND
     1    18    19    2
     2    19    20   am
     3    20    17    1
     4    17     1    1
     5     1     2   ar
     6     2     3   ar
     7     3     4   ar
     8     4     7    1
     9     7     8    2
    10     7     9    1
    11     9    10   ar
    12    10    11   ar
    13    11    12    1
    14    11    13   ar
    15    13    14   ar
    16    14    15    1
    17    14    16   ar
    18     4     5   ar
    19     5     6   ar
    20    19    22    1
    21    22    23   ar
    22    23    24   ar
    23    24    25   ar
    24    25    26   ar
    25    26    27   ar
    26    27    28   ar
    27    28    29   ar
    28    29    30   ar
    29     6     1   ar
    30    30    22   ar
    31    16     9   ar
    32    29    24   ar
    33    20    21    1
@<TRIPOS>MOLECULE
*****
 30 33 0 0 0
SMALL
GASTEIGER

@<TRIPOS>ATOM
      1 C           6.8132   -4.1177   22.7778 C.ar    1  UNL1        0.0792
      2 C           5.4519   -3.6494   23.1993 C.ar    1  UNL1        0.0210
      3 C           4.4048   -3.3600   22.1649 C.ar    1  UNL1        0.0553
      4 C           4.7190   -3.5389   20.7091 C.ar    1  UNL1        0.2045
      5 C           6.0804   -4.0071   20.2877 C.ar    1  UNL1        0.1507
      6 N           7.1274   -4.2965   21.3221 N.ar    1  UNL1       -0.2419
      7 S           3.6720   -3.2495   19.6748 S.O     1  UNL1        0.0765
      8 O           3.0169   -4.3778   18.9347 O.co2   1  UNL1       -0.6736
      9 C           3.2801   -1.8318   19.3806 C.ar    1  UNL1        0.1900
     10 C           4.2152   -0.9372   18.6222 C.ar    1  UNL1        0.0821
     11 C           3.8232    0.4805   18.3279 C.ar    1  UNL1        0.1467
     12 F           4.7583    1.3752   17.5695 F       1  UNL1       -0.2039
     13 C           2.4962    1.0035   18.7922 C.ar    1  UNL1        0.0595
     14 C           1.5611    0.1089   19.5506 C.ar    1  UNL1        0.1467
     15 F           0.2341    0.6319   20.0148 F       1  UNL1       -0.2039
     16 C           1.9530   -1.3088   19.8448 C.ar    1  UNL1        0.0821
     17 C           7.8603   -4.4071   23.8122 C.3     1  UNL1        0.1361
     18 O           8.9174   -2.5229   25.8936 O.2     1  UNL1       -0.2668
     19 C           7.9958   -3.6379   26.2901 C.2     1  UNL1        0.2809
     20 N           7.4672   -4.5800   25.2494 N.am    1  UNL1       -0.2931
     21 H           6.8623   -5.3118   25.5097 H       1  UNL1        0.1502
     22 C           7.6026   -3.8108   27.7273 C.ar    1  UNL1        0.1984
     23 C           7.0530   -2.7428   28.6257 C.ar    1  UNL1        0.0453
     24 C           6.8008   -3.3540   29.9721 C.ar    1  UNL1        0.0409
     25 C           6.2634   -2.7808   31.2498 C.ar    1  UNL1        0.0238
     26 C           6.1199   -3.6535   32.4613 C.ar    1  UNL1        0.0991
     27 N           6.5137   -5.0994   32.3951 N.ar    1  UNL1       -0.2391
     28 C           7.0511   -5.6726   31.1173 C.ar    1  UNL1        0.1362
     29 C           7.1946   -4.7999   29.9058 C.ar    1  UNL1        0.1646
     30 O           7.6902   -5.0822   28.5185 O.2     1  UNL1       -0.4473
@<TRIPOS>UNITY_ATOM_ATTR
7 1
charge 1
8 1
charge -1
@<TRIPOS>BOND
     1    18    19    2
     2    19    20   am
     3    20    17    1
     4    17     1    1
     5     1     2   ar
     6     2     3   ar
     7     3     4   ar
     8     4     7    1
     9     7     8    2
    10     7     9    1
    11     9    10   ar
    12    10    11   ar
    13    11    12    1
    14    11    13   ar
    15    13    14   ar
    16    14    15    1
    17    14    16   ar
    18     4     5   ar
    19     5     6   ar
    20    19    22    1
    21    22    23   ar
    22    23    24   ar
    23    24    25   ar
    24    25    26   ar
    25    26    27   ar
    26    27    28   ar
    27    28    29   ar
    28    29    30   ar
    29     6     1   ar
    30    30    22   ar
    31    16     9   ar
    32    29    24   ar
    33    20    21    1
