@<TRIPOS>MOLECULE
*****
 40 43 0 0 0
SMALL
GASTEIGER

@<TRIPOS>ATOM
      1 N          -3.9406  -20.4601   19.8355 N.am    1  UNL1       -0.2994
      2 C          -3.2411  -19.7781   20.9737 C.2     1  UNL1        0.2471
      3 O          -3.6055  -20.1167   22.3889 O.2     1  UNL1       -0.2701
      4 H          -3.7015  -20.2378   18.9066 H       1  UNL1        0.1498
      5 C          -2.1774  -18.7574   20.6968 C.ar    1  UNL1        0.0668
      6 C          -0.9029  -19.1671   20.0202 C.ar    1  UNL1        0.0058
      7 C           0.1609  -18.1465   19.7432 C.ar    1  UNL1        0.0002
      8 C          -0.0497  -16.7162   20.1430 C.ar    1  UNL1        0.0013
      9 C          -1.3243  -16.3065   20.8197 C.ar    1  UNL1        0.0148
     10 C          -2.3880  -17.3271   21.0966 C.ar    1  UNL1        0.0549
     11 N          -3.6625  -16.9174   21.7733 N.am    1  UNL1       -0.2802
     12 C          -3.7868  -17.0213   23.2645 C.2     1  UNL1        0.2510
     13 O          -2.6368  -17.5349   24.0791 O.2     1  UNL1       -0.2698
     14 H          -4.4173  -16.5803   21.2387 H       1  UNL1        0.1552
     15 C          -5.0614  -16.6116   23.9412 C.ar    1  UNL1        0.0728
     16 C          -6.3689  -16.7374   23.2170 C.ar    1  UNL1        0.1033
     17 N          -7.6434  -16.3277   23.8936 N.ar    1  UNL1       -0.2437
     18 C          -7.6104  -15.7922   25.2944 C.ar    1  UNL1        0.0813
     19 C          -8.8848  -15.3825   25.9710 C.ar    1  UNL1        0.0191
     20 C          -8.8517  -14.8471   27.3717 C.ar    1  UNL1        0.0015
     21 C          -7.5442  -14.7213   28.0959 C.ar    1  UNL1        0.0001
     22 C          -6.2697  -15.1310   27.4193 C.ar    1  UNL1        0.0015
     23 C          -6.3028  -15.6664   26.0186 C.ar    1  UNL1        0.0178
     24 C          -5.0283  -16.0762   25.3419 C.ar    1  UNL1        0.0076
     25 C          -5.0044  -21.4807   20.1124 C.3     1  UNL1        0.1070
     26 C          -6.4170  -21.2293   19.6749 C.3     1  UNL1        0.0937
     27 N          -7.1897  -20.0831   20.2571 N.3     1  UNL1       -0.2697
     28 C          -6.9704  -19.6790   21.6849 C.3     1  UNL1        0.0897
     29 C          -8.1818  -19.3409   19.4115 C.3     1  UNL1        0.0769
     30 C          -9.6329  -19.7183   19.4522 C.3     1  UNL1        0.0438
     31 C         -12.3321  -17.9442   22.5854 C.ar    1  UNL1        0.1724
     32 C         -12.4035  -17.4544   21.1694 C.ar    1  UNL1        0.0397
     33 C         -11.5037  -18.0458   20.1250 C.ar    1  UNL1       -0.0009
     34 C         -10.5326  -19.1270   20.4966 C.ar    1  UNL1       -0.0176
     35 C         -10.4613  -19.6167   21.9126 C.ar    1  UNL1        0.0358
     36 C         -11.3610  -19.0253   22.9570 C.ar    1  UNL1        0.1721
     37 C         -14.3001  -18.1941   24.2631 C.3     1  UNL1        0.2526
     38 O         -13.2319  -17.3528   23.6298 O.3     1  UNL1       -0.4684
     39 O         -11.2897  -19.5151   24.3730 O.3     1  UNL1       -0.4684
     40 C          -9.9901  -20.0181   24.9281 C.3     1  UNL1        0.2526
@<TRIPOS>BOND
     1    37    38    1
     2    38    31    1
     3    31    32   ar
     4    32    33   ar
     5    33    34   ar
     6    34    30    1
     7    30    29    1
     8    29    27    1
     9    27    28    1
    10    27    26    1
    11    26    25    1
    12    25     1    1
    13     1     2   am
    14     2     3    2
    15     2     5    1
    16     5     6   ar
    17     6     7   ar
    18     7     8   ar
    19     8     9   ar
    20     9    10   ar
    21    10    11    1
    22    11    12   am
    23    12    13    2
    24    12    15    1
    25    15    16   ar
    26    16    17   ar
    27    17    18   ar
    28    18    19   ar
    29    19    20   ar
    30    20    21   ar
    31    21    22   ar
    32    22    23   ar
    33    23    24   ar
    34    34    35   ar
    35    35    36   ar
    36    36    39    1
    37    39    40    1
    38    36    31   ar
    39    10     5   ar
    40    24    15   ar
    41    23    18   ar
    42     1     4    1
    43    11    14    1
@<TRIPOS>MOLECULE
*****
 40 43 0 0 0
SMALL
GASTEIGER

@<TRIPOS>ATOM
      1 N           7.7535   -4.2862   20.8939 N.am    1  UNL1       -0.2994
      2 C           7.9184   -4.0681   22.3687 C.2     1  UNL1        0.2471
      3 O           7.8515   -2.6801   22.9337 O.2     1  UNL1       -0.2701
      4 H           7.7974   -5.1971   20.5230 H       1  UNL1        0.1498
      5 C           8.1503   -5.2378   23.2786 C.ar    1  UNL1        0.0668
      6 C           9.1943   -6.2589   22.9361 C.ar    1  UNL1        0.0058
      7 C           9.4263   -7.4287   23.8460 C.ar    1  UNL1        0.0002
      8 C           8.6141   -7.5774   25.0983 C.ar    1  UNL1        0.0013
      9 C           7.5701   -6.5562   25.4407 C.ar    1  UNL1        0.0148
     10 C           7.3382   -5.3865   24.5309 C.ar    1  UNL1        0.0549
     11 N           6.2941   -4.3654   24.8734 N.am    1  UNL1       -0.2802
     12 C           6.5796   -3.3193   25.9098 C.2     1  UNL1        0.2510
     13 O           7.9092   -3.2944   26.6038 O.2     1  UNL1       -0.2698
     14 H           5.4215   -4.3818   24.4179 H       1  UNL1        0.1552
     15 C           5.5355   -2.2982   26.2523 C.ar    1  UNL1        0.0728
     16 C           5.3411   -1.8734   27.6777 C.ar    1  UNL1        0.1033
     17 N           4.2970   -0.8523   28.0202 N.ar    1  UNL1       -0.2437
     18 C           3.4473   -0.2560   26.9373 C.ar    1  UNL1        0.0813
     19 C           2.4033    0.7650   27.2798 C.ar    1  UNL1        0.0191
     20 C           1.5537    1.3612   26.1969 C.ar    1  UNL1        0.0015
     21 C           1.7481    0.9364   24.7715 C.ar    1  UNL1        0.0001
     22 C           2.7922   -0.0847   24.4290 C.ar    1  UNL1        0.0015
     23 C           3.6418   -0.6809   25.5119 C.ar    1  UNL1        0.0178
     24 C           4.6859   -1.7020   25.1694 C.ar    1  UNL1        0.0076
     25 C           7.5216   -3.1163   19.9840 C.3     1  UNL1        0.1070
     26 C           6.2523   -3.0237   19.1901 C.3     1  UNL1        0.0937
     27 N           5.0454   -3.8086   19.6112 N.3     1  UNL1       -0.2697
     28 C           4.6447   -5.0357   18.8472 C.3     1  UNL1        0.0897
     29 C           4.2391   -3.3663   20.7963 C.3     1  UNL1        0.0769
     30 C           4.1318   -1.9075   21.1282 C.3     1  UNL1        0.0438
     31 C           1.3121    0.7255   18.8116 C.ar    1  UNL1        0.1724
     32 C           2.5650    0.2154   18.1636 C.ar    1  UNL1        0.0397
     33 C           3.5049   -0.6623   18.9358 C.ar    1  UNL1       -0.0009
     34 C           3.1919   -1.0298   20.3560 C.ar    1  UNL1       -0.0176
     35 C           1.9389   -0.5197   21.0040 C.ar    1  UNL1        0.0358
     36 C           0.9990    0.3579   20.2318 C.ar    1  UNL1        0.1721
     37 C           0.4429    3.0939   18.1907 C.3     1  UNL1        0.2526
     38 O           0.3721    1.6032   18.0394 O.3     1  UNL1       -0.4684
     39 O          -0.2540    0.8681   20.8798 O.3     1  UNL1       -0.4684
     40 C          -0.2236    2.1411   21.6725 C.3     1  UNL1        0.2526
@<TRIPOS>BOND
     1    37    38    1
     2    38    31    1
     3    31    32   ar
     4    32    33   ar
     5    33    34   ar
     6    34    30    1
     7    30    29    1
     8    29    27    1
     9    27    28    1
    10    27    26    1
    11    26    25    1
    12    25     1    1
    13     1     2   am
    14     2     3    2
    15     2     5    1
    16     5     6   ar
    17     6     7   ar
    18     7     8   ar
    19     8     9   ar
    20     9    10   ar
    21    10    11    1
    22    11    12   am
    23    12    13    2
    24    12    15    1
    25    15    16   ar
    26    16    17   ar
    27    17    18   ar
    28    18    19   ar
    29    19    20   ar
    30    20    21   ar
    31    21    22   ar
    32    22    23   ar
    33    23    24   ar
    34    34    35   ar
    35    35    36   ar
    36    36    39    1
    37    39    40    1
    38    36    31   ar
    39    10     5   ar
    40    24    15   ar
    41    23    18   ar
    42     1     4    1
    43    11    14    1
@<TRIPOS>MOLECULE
*****
 40 43 0 0 0
SMALL
GASTEIGER

@<TRIPOS>ATOM
      1 N           7.0225   -4.2527   21.2739 N.am    1  UNL1       -0.2994
      2 C           7.8949   -4.0162   22.4710 C.2     1  UNL1        0.2471
      3 O           8.9898   -2.9927   22.4106 O.2     1  UNL1       -0.2701
      4 H           6.3039   -4.9245   21.3135 H       1  UNL1        0.1498
      5 C           7.6723   -4.8032   23.7284 C.ar    1  UNL1        0.0668
      6 C           8.3065   -6.1527   23.8907 C.ar    1  UNL1        0.0058
      7 C           8.0840   -6.9398   25.1482 C.ar    1  UNL1        0.0002
      8 C           7.2272   -6.3771   26.2433 C.ar    1  UNL1        0.0013
      9 C           6.5930   -5.0274   26.0810 C.ar    1  UNL1        0.0148
     10 C           6.8156   -4.2405   24.8236 C.ar    1  UNL1        0.0549
     11 N           6.1814   -2.8909   24.6614 N.am    1  UNL1       -0.2802
     12 C           5.0257   -2.7134   23.7217 C.2     1  UNL1        0.2510
     13 O           4.5042   -3.8854   22.9444 O.2     1  UNL1       -0.2698
     14 H           6.5236   -2.1217   25.1716 H       1  UNL1        0.1552
     15 C           4.3915   -1.3637   23.5595 C.ar    1  UNL1        0.0728
     16 C           3.3978   -0.8755   24.5715 C.ar    1  UNL1        0.1033
     17 N           2.7636    0.4741   24.4093 N.ar    1  UNL1       -0.2437
     18 C           3.1231    1.3356   23.2351 C.ar    1  UNL1        0.0813
     19 C           2.4889    2.6852   23.0729 C.ar    1  UNL1        0.0191
     20 C           2.8485    3.5465   21.8988 C.ar    1  UNL1        0.0015
     21 C           3.8422    3.0583   20.8868 C.ar    1  UNL1        0.0001
     22 C           4.4764    1.7087   21.0489 C.ar    1  UNL1        0.0015
     23 C           4.1168    0.8474   22.2231 C.ar    1  UNL1        0.0178
     24 C           4.7510   -0.5023   22.3853 C.ar    1  UNL1        0.0076
     25 C           7.2451   -3.4657   20.0164 C.3     1  UNL1        0.1070
     26 C           6.1232   -2.6656   19.4240 C.3     1  UNL1        0.0937
     27 N           4.7919   -3.3104   19.1752 N.3     1  UNL1       -0.2697
     28 C           4.7243   -4.7265   18.6853 C.3     1  UNL1        0.0897
     29 C           3.5282   -2.5391   19.4163 C.3     1  UNL1        0.0769
     30 C           3.3528   -1.1784   18.8100 C.3     1  UNL1        0.0438
     31 C          -0.0396    1.4595   20.1452 C.ar    1  UNL1        0.1724
     32 C           0.3325    0.2507   20.9514 C.ar    1  UNL1        0.0397
     33 C           1.4634   -0.6287   20.5064 C.ar    1  UNL1       -0.0009
     34 C           2.2220   -0.2991   19.2550 C.ar    1  UNL1       -0.0176
     35 C           1.8498    0.9099   18.4488 C.ar    1  UNL1        0.0358
     36 C           0.7190    1.7891   18.8938 C.ar    1  UNL1        0.1721
     37 C          -0.9643    3.3175   21.7082 C.3     1  UNL1        0.2526
     38 O          -1.1705    2.3389   20.5903 O.3     1  UNL1       -0.4684
     39 O           0.3468    2.9981   18.0876 O.3     1  UNL1       -0.4684
     40 C           1.0063    4.3165   18.3646 C.3     1  UNL1        0.2526
@<TRIPOS>BOND
     1    37    38    1
     2    38    31    1
     3    31    32   ar
     4    32    33   ar
     5    33    34   ar
     6    34    30    1
     7    30    29    1
     8    29    27    1
     9    27    28    1
    10    27    26    1
    11    26    25    1
    12    25     1    1
    13     1     2   am
    14     2     3    2
    15     2     5    1
    16     5     6   ar
    17     6     7   ar
    18     7     8   ar
    19     8     9   ar
    20     9    10   ar
    21    10    11    1
    22    11    12   am
    23    12    13    2
    24    12    15    1
    25    15    16   ar
    26    16    17   ar
    27    17    18   ar
    28    18    19   ar
    29    19    20   ar
    30    20    21   ar
    31    21    22   ar
    32    22    23   ar
    33    23    24   ar
    34    34    35   ar
    35    35    36   ar
    36    36    39    1
    37    39    40    1
    38    36    31   ar
    39    10     5   ar
    40    24    15   ar
    41    23    18   ar
    42     1     4    1
    43    11    14    1
@<TRIPOS>MOLECULE
*****
 40 43 0 0 0
SMALL
GASTEIGER

@<TRIPOS>ATOM
      1 N           5.8593   -3.2792   25.5186 N.am    1  UNL1       -0.2994
      2 C           7.2952   -3.6211   25.7855 C.2     1  UNL1        0.2471
      3 O           8.3435   -2.5493   25.7335 O.2     1  UNL1       -0.2701
      4 H           5.1713   -3.9826   25.5527 H       1  UNL1        0.1498
      5 C           7.6829   -5.0345   26.1043 C.ar    1  UNL1        0.0668
      6 C           7.6668   -6.0779   25.0268 C.ar    1  UNL1        0.0058
      7 C           8.0545   -7.4915   25.3457 C.ar    1  UNL1        0.0002
      8 C           8.4583   -7.8616   26.7421 C.ar    1  UNL1        0.0013
      9 C           8.4745   -6.8181   27.8196 C.ar    1  UNL1        0.0148
     10 C           8.0867   -5.4046   27.5007 C.ar    1  UNL1        0.0549
     11 N           8.1029   -4.3613   28.5783 N.am    1  UNL1       -0.2802
     12 C           7.3517   -4.5911   29.8561 C.2     1  UNL1        0.2510
     13 O           6.5845   -5.8643   30.0565 O.2     1  UNL1       -0.2698
     14 H           8.6065   -3.5256   28.4468 H       1  UNL1        0.1552
     15 C           7.3679   -3.5477   30.9337 C.ar    1  UNL1        0.0728
     16 C           8.6456   -2.8382   31.2715 C.ar    1  UNL1        0.1033
     17 N           8.6618   -1.7948   32.3490 N.ar    1  UNL1       -0.2437
     18 C           7.4003   -1.4608   33.0887 C.ar    1  UNL1        0.0813
     19 C           7.4165   -0.4174   34.1662 C.ar    1  UNL1        0.0191
     20 C           6.1550   -0.0836   34.9059 C.ar    1  UNL1        0.0015
     21 C           4.8774   -0.7931   34.5680 C.ar    1  UNL1        0.0001
     22 C           4.8611   -1.8364   33.4906 C.ar    1  UNL1        0.0015
     23 C           6.1226   -2.1703   32.7509 C.ar    1  UNL1        0.0178
     24 C           6.1064   -3.2138   31.6734 C.ar    1  UNL1        0.0076
     25 C           5.4716   -1.8657   25.1997 C.3     1  UNL1        0.1070
     26 C           5.1001   -0.9223   26.3052 C.3     1  UNL1        0.0937
     27 N           6.1723   -0.2720   27.1282 N.3     1  UNL1       -0.2697
     28 C           6.7915    1.0155   26.6712 C.3     1  UNL1        0.0897
     29 C           6.6254   -0.9094   28.4083 C.3     1  UNL1        0.0769
     30 C           6.6585   -0.1067   29.6751 C.3     1  UNL1        0.0438
     31 C           2.8120    1.1157   31.6650 C.ar    1  UNL1        0.1724
     32 C           4.1020    1.7713   32.0600 C.ar    1  UNL1        0.0397
     33 C           5.3843    1.3638   31.3966 C.ar    1  UNL1       -0.0009
     34 C           5.3764    0.3008   30.3384 C.ar    1  UNL1       -0.0176
     35 C           4.0862   -0.3548   29.9434 C.ar    1  UNL1        0.0358
     36 C           2.8041    0.0527   30.6068 C.ar    1  UNL1        0.1721
     37 C           0.6377    2.5378   31.6766 C.3     1  UNL1        0.2526
     38 O           1.5298    1.5232   32.3283 O.3     1  UNL1       -0.4684
     39 O           1.5140   -0.6028   30.2118 O.3     1  UNL1       -0.4684
     40 C           0.8438   -0.2244   28.9243 C.3     1  UNL1        0.2526
@<TRIPOS>BOND
     1    37    38    1
     2    38    31    1
     3    31    32   ar
     4    32    33   ar
     5    33    34   ar
     6    34    30    1
     7    30    29    1
     8    29    27    1
     9    27    28    1
    10    27    26    1
    11    26    25    1
    12    25     1    1
    13     1     2   am
    14     2     3    2
    15     2     5    1
    16     5     6   ar
    17     6     7   ar
    18     7     8   ar
    19     8     9   ar
    20     9    10   ar
    21    10    11    1
    22    11    12   am
    23    12    13    2
    24    12    15    1
    25    15    16   ar
    26    16    17   ar
    27    17    18   ar
    28    18    19   ar
    29    19    20   ar
    30    20    21   ar
    31    21    22   ar
    32    22    23   ar
    33    23    24   ar
    34    34    35   ar
    35    35    36   ar
    36    36    39    1
    37    39    40    1
    38    36    31   ar
    39    10     5   ar
    40    24    15   ar
    41    23    18   ar
    42     1     4    1
    43    11    14    1
@<TRIPOS>MOLECULE
*****
 40 43 0 0 0
SMALL
GASTEIGER

@<TRIPOS>ATOM
      1 N           5.0410   -2.4261   25.6920 N.am    1  UNL1       -0.2994
      2 C           6.3287   -2.6313   24.9507 C.2     1  UNL1        0.2471
      3 O           7.0462   -1.4568   24.3542 O.2     1  UNL1       -0.2701
      4 H           4.5701   -3.1969   26.0835 H       1  UNL1        0.1498
      5 C           6.8990   -4.0111   24.8058 C.ar    1  UNL1        0.0668
      6 C           6.8919   -4.9520   25.9739 C.ar    1  UNL1        0.0058
      7 C           7.4622   -6.3318   25.8290 C.ar    1  UNL1        0.0002
      8 C           8.0396   -6.7707   24.5160 C.ar    1  UNL1        0.0013
      9 C           8.0466   -5.8297   23.3478 C.ar    1  UNL1        0.0148
     10 C           7.4764   -4.4499   23.4927 C.ar    1  UNL1        0.0549
     11 N           7.4835   -3.5090   22.3246 N.am    1  UNL1       -0.2802
     12 C           6.3408   -3.5111   21.3529 C.2     1  UNL1        0.2510
     13 O           5.1910   -4.4541   21.5493 O.2     1  UNL1       -0.2698
     14 H           8.2382   -2.8901   22.1956 H       1  UNL1        0.1552
     15 C           6.3479   -2.5701   20.1847 C.ar    1  UNL1        0.0728
     16 C           5.6229   -2.9350   18.9233 C.ar    1  UNL1        0.1033
     17 N           5.6301   -1.9941   17.7551 N.ar    1  UNL1       -0.2437
     18 C           6.3622   -0.6882   17.8484 C.ar    1  UNL1        0.0813
     19 C           6.3693    0.2527   16.6802 C.ar    1  UNL1        0.0191
     20 C           7.1015    1.5585   16.7735 C.ar    1  UNL1        0.0015
     21 C           7.8265    1.9234   18.0349 C.ar    1  UNL1        0.0001
     22 C           7.8193    0.9825   19.2031 C.ar    1  UNL1        0.0015
     23 C           7.0872   -0.3233   19.1098 C.ar    1  UNL1        0.0178
     24 C           7.0801   -1.2643   20.2780 C.ar    1  UNL1        0.0076
     25 C           4.4707   -1.0462   25.8369 C.3     1  UNL1        0.1070
     26 C           3.4131   -0.5682   24.8866 C.3     1  UNL1        0.0937
     27 N           3.8055    0.0779   23.5911 N.3     1  UNL1       -0.2697
     28 C           3.8646    1.5731   23.4863 C.3     1  UNL1        0.0897
     29 C           4.1387   -0.7711   22.4002 C.3     1  UNL1        0.0769
     30 C           3.0444   -1.2634   21.5003 C.3     1  UNL1        0.0438
     31 C           0.8536    1.6248   18.8341 C.ar    1  UNL1        0.1724
     32 C           2.1693    1.0516   18.3979 C.ar    1  UNL1        0.0397
     33 C           2.8996    0.0888   19.2866 C.ar    1  UNL1       -0.0009
     34 C           2.3141   -0.3007   20.6115 C.ar    1  UNL1       -0.0176
     35 C           0.9983    0.2725   21.0478 C.ar    1  UNL1        0.0358
     36 C           0.2681    1.2353   20.1590 C.ar    1  UNL1        0.1721
     37 C           0.5175    4.0347   17.9233 C.3     1  UNL1        0.2526
     38 O           0.1233    2.5876   17.9454 O.3     1  UNL1       -0.4684
     39 O          -1.0477    1.8085   20.5953 O.3     1  UNL1       -0.4684
     40 C          -1.0949    3.1436   21.2773 C.3     1  UNL1        0.2526
@<TRIPOS>BOND
     1    37    38    1
     2    38    31    1
     3    31    32   ar
     4    32    33   ar
     5    33    34   ar
     6    34    30    1
     7    30    29    1
     8    29    27    1
     9    27    28    1
    10    27    26    1
    11    26    25    1
    12    25     1    1
    13     1     2   am
    14     2     3    2
    15     2     5    1
    16     5     6   ar
    17     6     7   ar
    18     7     8   ar
    19     8     9   ar
    20     9    10   ar
    21    10    11    1
    22    11    12   am
    23    12    13    2
    24    12    15    1
    25    15    16   ar
    26    16    17   ar
    27    17    18   ar
    28    18    19   ar
    29    19    20   ar
    30    20    21   ar
    31    21    22   ar
    32    22    23   ar
    33    23    24   ar
    34    34    35   ar
    35    35    36   ar
    36    36    39    1
    37    39    40    1
    38    36    31   ar
    39    10     5   ar
    40    24    15   ar
    41    23    18   ar
    42     1     4    1
    43    11    14    1
@<TRIPOS>MOLECULE
*****
 40 43 0 0 0
SMALL
GASTEIGER

@<TRIPOS>ATOM
      1 N           5.7796   -3.1301   25.6555 N.am    1  UNL1       -0.2994
      2 C           7.2283   -3.4477   25.4310 C.2     1  UNL1        0.2471
      3 O           8.2552   -2.3566   25.5030 O.2     1  UNL1       -0.2701
      4 H           5.1056   -3.8462   25.6083 H       1  UNL1        0.1498
      5 C           7.6501   -4.8562   25.1344 C.ar    1  UNL1        0.0668
      6 C           7.7094   -5.8696   26.2386 C.ar    1  UNL1        0.0058
      7 C           8.1312   -7.2783   25.9420 C.ar    1  UNL1        0.0002
      8 C           8.4937   -7.6734   24.5412 C.ar    1  UNL1        0.0013
      9 C           8.4344   -6.6599   23.4369 C.ar    1  UNL1        0.0148
     10 C           8.0126   -5.2514   23.7335 C.ar    1  UNL1        0.0549
     11 N           7.9534   -4.2380   22.6292 N.am    1  UNL1       -0.2802
     12 C           6.6272   -3.8125   22.0720 C.2     1  UNL1        0.2510
     13 O           5.3604   -4.4006   22.6191 O.2     1  UNL1       -0.2698
     14 H           8.7848   -3.8520   22.2702 H       1  UNL1        0.1552
     15 C           6.5680   -2.7991   20.9677 C.ar    1  UNL1        0.0728
     16 C           7.6884   -1.8178   20.7894 C.ar    1  UNL1        0.1033
     17 N           7.6293   -0.8044   19.6852 N.ar    1  UNL1       -0.2437
     18 C           6.4496   -0.7722   18.7591 C.ar    1  UNL1        0.0813
     19 C           6.3904    0.2413   17.6549 C.ar    1  UNL1        0.0191
     20 C           5.2108    0.2734   16.7289 C.ar    1  UNL1        0.0015
     21 C           4.0904   -0.7078   16.9072 C.ar    1  UNL1        0.0001
     22 C           4.1496   -1.7213   18.0115 C.ar    1  UNL1        0.0015
     23 C           5.3292   -1.7534   18.9374 C.ar    1  UNL1        0.0178
     24 C           5.3884   -2.7669   20.0417 C.ar    1  UNL1        0.0076
     25 C           5.3578   -1.7215   25.9522 C.3     1  UNL1        0.1070
     26 C           3.9140   -1.3312   25.8382 C.3     1  UNL1        0.0937
     27 N           3.4220   -0.6277   24.6082 N.3     1  UNL1       -0.2697
     28 C           2.3657    0.4313   24.7217 C.3     1  UNL1        0.0897
     29 C           3.9864   -0.9831   23.2646 C.3     1  UNL1        0.0769
     30 C           3.0659   -1.3354   22.1339 C.3     1  UNL1        0.0438
     31 C           1.8022    1.8273   19.1926 C.ar    1  UNL1        0.1724
     32 C           0.8225    0.7821   19.6372 C.ar    1  UNL1        0.0397
     33 C           1.2437   -0.2722   20.6176 C.ar    1  UNL1       -0.0009
     34 C           2.6447   -0.2812   21.1535 C.ar    1  UNL1       -0.0176
     35 C           3.6245    0.7640   20.7089 C.ar    1  UNL1        0.0358
     36 C           3.2032    1.8182   19.7285 C.ar    1  UNL1        0.1721
     37 C          -0.0687    3.0451   17.8634 C.3     1  UNL1        0.2526
     38 O           1.3810    2.8815   18.2122 O.3     1  UNL1       -0.4684
     39 O           4.1830    2.8634   19.2838 O.3     1  UNL1       -0.4684
     40 C           4.1770    4.2188   19.9265 C.3     1  UNL1        0.2526
@<TRIPOS>BOND
     1    37    38    1
     2    38    31    1
     3    31    32   ar
     4    32    33   ar
     5    33    34   ar
     6    34    30    1
     7    30    29    1
     8    29    27    1
     9    27    28    1
    10    27    26    1
    11    26    25    1
    12    25     1    1
    13     1     2   am
    14     2     3    2
    15     2     5    1
    16     5     6   ar
    17     6     7   ar
    18     7     8   ar
    19     8     9   ar
    20     9    10   ar
    21    10    11    1
    22    11    12   am
    23    12    13    2
    24    12    15    1
    25    15    16   ar
    26    16    17   ar
    27    17    18   ar
    28    18    19   ar
    29    19    20   ar
    30    20    21   ar
    31    21    22   ar
    32    22    23   ar
    33    23    24   ar
    34    34    35   ar
    35    35    36   ar
    36    36    39    1
    37    39    40    1
    38    36    31   ar
    39    10     5   ar
    40    24    15   ar
    41    23    18   ar
    42     1     4    1
    43    11    14    1
@<TRIPOS>MOLECULE
*****
 40 43 0 0 0
SMALL
GASTEIGER

@<TRIPOS>ATOM
      1 N          -0.2594    3.5114   22.3637 N.am    1  UNL1       -0.2994
      2 C          -0.4744    2.6098   21.1843 C.2     1  UNL1        0.2471
      3 O          -0.1987    1.1401   21.3036 O.2     1  UNL1       -0.2701
      4 H          -0.4403    4.4759   22.2854 H       1  UNL1        0.1498
      5 C          -0.9650    3.1779   19.8856 C.ar    1  UNL1        0.0668
      6 C          -2.4027    3.5791   19.7381 C.ar    1  UNL1        0.0058
      7 C          -2.8934    4.1472   18.4393 C.ar    1  UNL1        0.0002
      8 C          -1.9462    4.3140   17.2882 C.ar    1  UNL1        0.0013
      9 C          -0.5084    3.9127   17.4358 C.ar    1  UNL1        0.0148
     10 C          -0.0178    3.3446   18.7345 C.ar    1  UNL1        0.0549
     11 N           1.4199    2.9433   18.8820 N.am    1  UNL1       -0.2802
     12 C           1.8374    1.5309   18.5976 C.2     1  UNL1        0.2510
     13 O           0.8171    0.5198   18.1657 O.2     1  UNL1       -0.2698
     14 H           2.0896    3.6070   19.1655 H       1  UNL1        0.1552
     15 C           3.2752    1.1297   18.7452 C.ar    1  UNL1        0.0728
     16 C           4.2737    2.1056   19.2934 C.ar    1  UNL1        0.1033
     17 N           5.7115    1.7044   19.4409 N.ar    1  UNL1       -0.2437
     18 C           6.1508    0.3272   19.0403 C.ar    1  UNL1        0.0813
     19 C           7.5886   -0.0740   19.1878 C.ar    1  UNL1        0.0191
     20 C           8.0278   -1.4511   18.7872 C.ar    1  UNL1        0.0015
     21 C           7.0293   -2.4270   18.2389 C.ar    1  UNL1        0.0001
     22 C           5.5915   -2.0258   18.0914 C.ar    1  UNL1        0.0015
     23 C           5.1523   -0.6487   18.4920 C.ar    1  UNL1        0.0178
     24 C           3.7145   -0.2474   18.3445 C.ar    1  UNL1        0.0076
     25 C           0.2313    2.9433   23.6624 C.3     1  UNL1        0.1070
     26 C           1.6866    2.6263   23.8402 C.3     1  UNL1        0.0937
     27 N           2.1011    1.3110   24.4302 N.3     1  UNL1       -0.2697
     28 C           2.3870    1.2046   25.8988 C.3     1  UNL1        0.0897
     29 C           2.2297    0.1021   23.5516 C.3     1  UNL1        0.0769
     30 C           3.1384    0.1351   22.3587 C.3     1  UNL1        0.0438
     31 C           6.1094   -3.1802   21.7012 C.ar    1  UNL1        0.1724
     32 C           6.5572   -1.8794   22.2990 C.ar    1  UNL1        0.0397
     33 C           5.5669   -0.7743   22.5182 C.ar    1  UNL1       -0.0009
     34 C           4.1287   -0.9700   22.1396 C.ar    1  UNL1       -0.0176
     35 C           3.6809   -2.2709   21.5418 C.ar    1  UNL1        0.0358
     36 C           4.6712   -3.3759   21.3226 C.ar    1  UNL1        0.1721
     37 C           7.9179   -4.7978   22.6301 C.3     1  UNL1        0.2526
     38 O           7.0997   -4.2854   21.4820 O.3     1  UNL1       -0.4684
     39 O           4.2233   -4.6768   20.7249 O.3     1  UNL1       -0.4684
     40 C           3.4939   -4.6882   19.4142 C.3     1  UNL1        0.2526
@<TRIPOS>BOND
     1    37    38    1
     2    38    31    1
     3    31    32   ar
     4    32    33   ar
     5    33    34   ar
     6    34    30    1
     7    30    29    1
     8    29    27    1
     9    27    28    1
    10    27    26    1
    11    26    25    1
    12    25     1    1
    13     1     2   am
    14     2     3    2
    15     2     5    1
    16     5     6   ar
    17     6     7   ar
    18     7     8   ar
    19     8     9   ar
    20     9    10   ar
    21    10    11    1
    22    11    12   am
    23    12    13    2
    24    12    15    1
    25    15    16   ar
    26    16    17   ar
    27    17    18   ar
    28    18    19   ar
    29    19    20   ar
    30    20    21   ar
    31    21    22   ar
    32    22    23   ar
    33    23    24   ar
    34    34    35   ar
    35    35    36   ar
    36    36    39    1
    37    39    40    1
    38    36    31   ar
    39    10     5   ar
    40    24    15   ar
    41    23    18   ar
    42     1     4    1
    43    11    14    1
@<TRIPOS>MOLECULE
*****
 40 43 0 0 0
SMALL
GASTEIGER

@<TRIPOS>ATOM
      1 N           4.7903   -2.3535   27.3907 N.am    1  UNL1       -0.2994
      2 C           6.2572   -2.6047   27.5784 C.2     1  UNL1        0.2471
      3 O           7.2292   -1.4648   27.5005 O.2     1  UNL1       -0.2701
      4 H           4.1523   -3.1016   27.4418 H       1  UNL1        0.1498
      5 C           6.7520   -3.9955   27.8440 C.ar    1  UNL1        0.0668
      6 C           7.0981   -4.4142   29.2422 C.ar    1  UNL1        0.0058
      7 C           7.5930   -5.8051   29.5078 C.ar    1  UNL1        0.0002
      8 C           7.7417   -6.7773   28.3752 C.ar    1  UNL1        0.0013
      9 C           7.3956   -6.3586   26.9770 C.ar    1  UNL1        0.0148
     10 C           6.9007   -4.9677   26.7114 C.ar    1  UNL1        0.0549
     11 N           6.5546   -4.5491   25.3133 N.am    1  UNL1       -0.2802
     12 C           7.6399   -4.1371   24.3634 C.2     1  UNL1        0.2510
     13 O           9.0713   -4.1437   24.8116 O.2     1  UNL1       -0.2698
     14 H           5.6151   -4.5447   25.0191 H       1  UNL1        0.1552
     15 C           7.2937   -3.7184   22.9651 C.ar    1  UNL1        0.0728
     16 C           8.2980   -2.9763   22.1341 C.ar    1  UNL1        0.1033
     17 N           7.9519   -2.5576   20.7359 N.ar    1  UNL1       -0.2437
     18 C           6.6014   -2.8811   20.1688 C.ar    1  UNL1        0.0813
     19 C           6.2552   -2.4624   18.7706 C.ar    1  UNL1        0.0191
     20 C           4.9048   -2.7858   18.2035 C.ar    1  UNL1        0.0015
     21 C           3.9005   -3.5279   19.0346 C.ar    1  UNL1        0.0001
     22 C           4.2466   -3.9466   20.4327 C.ar    1  UNL1        0.0015
     23 C           5.5971   -3.6231   20.9998 C.ar    1  UNL1        0.0178
     24 C           5.9433   -4.0418   22.3980 C.ar    1  UNL1        0.0076
     25 C           4.2955   -0.9626   27.1251 C.3     1  UNL1        0.1070
     26 C           4.5454   -0.3192   25.7934 C.3     1  UNL1        0.0937
     27 N           3.4225    0.3579   25.0650 N.3     1  UNL1       -0.2697
     28 C           3.0405    1.7650   25.4173 C.3     1  UNL1        0.0897
     29 C           2.6816   -0.3721   23.9841 C.3     1  UNL1        0.0769
     30 C           3.4399   -1.1330   22.9373 C.3     1  UNL1        0.0438
     31 C           4.6591    0.9054   19.1152 C.ar    1  UNL1        0.1724
     32 C           5.6419    0.7719   20.2405 C.ar    1  UNL1        0.0397
     33 C           5.2355    0.0924   21.5146 C.ar    1  UNL1       -0.0009
     34 C           3.8463   -0.4535   21.6633 C.ar    1  UNL1       -0.0176
     35 C           2.8635   -0.3199   20.5379 C.ar    1  UNL1        0.0358
     36 C           3.2699    0.3595   19.2640 C.ar    1  UNL1        0.1721
     37 C           6.3816    2.3000   17.7593 C.3     1  UNL1        0.2526
     38 O           5.0655    1.5849   17.8411 O.3     1  UNL1       -0.4684
     39 O           2.2871    0.4931   18.1386 O.3     1  UNL1       -0.4684
     40 C           0.9710    1.1749   18.3692 C.3     1  UNL1        0.2526
@<TRIPOS>BOND
     1    37    38    1
     2    38    31    1
     3    31    32   ar
     4    32    33   ar
     5    33    34   ar
     6    34    30    1
     7    30    29    1
     8    29    27    1
     9    27    28    1
    10    27    26    1
    11    26    25    1
    12    25     1    1
    13     1     2   am
    14     2     3    2
    15     2     5    1
    16     5     6   ar
    17     6     7   ar
    18     7     8   ar
    19     8     9   ar
    20     9    10   ar
    21    10    11    1
    22    11    12   am
    23    12    13    2
    24    12    15    1
    25    15    16   ar
    26    16    17   ar
    27    17    18   ar
    28    18    19   ar
    29    19    20   ar
    30    20    21   ar
    31    21    22   ar
    32    22    23   ar
    33    23    24   ar
    34    34    35   ar
    35    35    36   ar
    36    36    39    1
    37    39    40    1
    38    36    31   ar
    39    10     5   ar
    40    24    15   ar
    41    23    18   ar
    42     1     4    1
    43    11    14    1
@<TRIPOS>MOLECULE
*****
 40 43 0 0 0
SMALL
GASTEIGER

@<TRIPOS>ATOM
      1 N           5.5755   -1.8705   21.3917 N.am    1  UNL1       -0.2994
      2 C           4.6119   -2.1826   22.4982 C.2     1  UNL1        0.2471
      3 O           4.2860   -3.6090   22.8288 O.2     1  UNL1       -0.2701
      4 H           5.7894   -0.9344   21.1747 H       1  UNL1        0.1498
      5 C           3.9743   -1.0684   23.2740 C.ar    1  UNL1        0.0668
      6 C           3.3773    0.1027   22.5514 C.ar    1  UNL1        0.0058
      7 C           2.7397    1.2170   23.3272 C.ar    1  UNL1        0.0002
      8 C           2.6990    1.1601   24.8256 C.ar    1  UNL1        0.0013
      9 C           3.2961   -0.0110   25.5481 C.ar    1  UNL1        0.0148
     10 C           3.9337   -1.1252   24.7724 C.ar    1  UNL1        0.0549
     11 N           4.5307   -2.2963   25.4949 N.am    1  UNL1       -0.2802
     12 C           5.9837   -2.2864   25.8675 C.2     1  UNL1        0.2510
     13 O           6.8396   -1.1054   25.5174 O.2     1  UNL1       -0.2698
     14 H           3.9689   -3.0714   25.7247 H       1  UNL1        0.1552
     15 C           6.5806   -3.4575   26.5901 C.ar    1  UNL1        0.0728
     16 C           6.9039   -3.3519   28.0510 C.ar    1  UNL1        0.1033
     17 N           7.5009   -4.5229   28.7737 N.ar    1  UNL1       -0.2437
     18 C           7.7746   -5.7997   28.0354 C.ar    1  UNL1        0.0813
     19 C           8.3715   -6.9708   28.7580 C.ar    1  UNL1        0.0191
     20 C           8.6451   -8.2475   28.0197 C.ar    1  UNL1        0.0015
     21 C           8.3218   -8.3531   26.5588 C.ar    1  UNL1        0.0001
     22 C           7.7249   -7.1821   25.8361 C.ar    1  UNL1        0.0015
     23 C           7.4512   -5.9054   26.5744 C.ar    1  UNL1        0.0178
     24 C           6.8543   -4.7342   25.8518 C.ar    1  UNL1        0.0076
     25 C           6.2131   -2.9849   20.6159 C.3     1  UNL1        0.1070
     26 C           5.9526   -3.1193   19.1449 C.3     1  UNL1        0.0937
     27 N           5.5295   -1.9226   18.3457 N.3     1  UNL1       -0.2697
     28 C           6.5586   -0.9528   17.8453 C.3     1  UNL1        0.0897
     29 C           4.0771   -1.6956   18.0468 C.3     1  UNL1        0.0769
     30 C           3.5775   -0.3101   17.7628 C.3     1  UNL1        0.0438
     31 C           0.1388    1.3707   20.1293 C.ar    1  UNL1        0.1724
     32 C           0.5860   -0.0428   20.3570 C.ar    1  UNL1        0.0397
     33 C           1.7323   -0.6031   19.5682 C.ar    1  UNL1       -0.0009
     34 C           2.4313    0.2501   18.5516 C.ar    1  UNL1       -0.0176
     35 C           1.9840    1.6638   18.3240 C.ar    1  UNL1        0.0358
     36 C           0.8378    2.2240   19.1128 C.ar    1  UNL1        0.1721
     37 C          -0.7556    2.9632   21.9772 C.3     1  UNL1        0.2526
     38 O          -1.0074    1.9311   20.9182 O.3     1  UNL1       -0.4684
     39 O           0.3906    3.6376   18.8852 O.3     1  UNL1       -0.4684
     40 C          -0.4667    3.9714   17.7004 C.3     1  UNL1        0.2526
@<TRIPOS>BOND
     1    37    38    1
     2    38    31    1
     3    31    32   ar
     4    32    33   ar
     5    33    34   ar
     6    34    30    1
     7    30    29    1
     8    29    27    1
     9    27    28    1
    10    27    26    1
    11    26    25    1
    12    25     1    1
    13     1     2   am
    14     2     3    2
    15     2     5    1
    16     5     6   ar
    17     6     7   ar
    18     7     8   ar
    19     8     9   ar
    20     9    10   ar
    21    10    11    1
    22    11    12   am
    23    12    13    2
    24    12    15    1
    25    15    16   ar
    26    16    17   ar
    27    17    18   ar
    28    18    19   ar
    29    19    20   ar
    30    20    21   ar
    31    21    22   ar
    32    22    23   ar
    33    23    24   ar
    34    34    35   ar
    35    35    36   ar
    36    36    39    1
    37    39    40    1
    38    36    31   ar
    39    10     5   ar
    40    24    15   ar
    41    23    18   ar
    42     1     4    1
    43    11    14    1
