@<TRIPOS>MOLECULE
*****
 20 22 0 0 0
SMALL
GASTEIGER

@<TRIPOS>ATOM
      1 N           0.1531  -17.8218   19.3397 N.pl3   1  UNL1       -0.3375
      2 C          -1.1937  -18.2312   19.8577 C.ar    1  UNL1        0.1567
      3 N          -1.5264  -18.5655   21.2816 N.ar    1  UNL1       -0.2245
      4 C          -2.9827  -18.9191   21.3467 C.ar    1  UNL1        0.0894
      5 C          -3.8654  -19.3315   22.4872 C.ar    1  UNL1        0.0228
      6 C          -5.3155  -19.6282   22.2439 C.ar    1  UNL1        0.0385
      7 C          -5.8828  -19.5125   20.8602 C.ar    1  UNL1        0.1397
      8 C          -5.0001  -19.1001   19.7197 C.ar    1  UNL1        0.0450
      9 C          -3.5501  -18.8034   19.9630 C.ar    1  UNL1        0.0527
     10 S          -2.4444  -18.3782   19.0428 S.2     1  UNL1       -0.0519
     11 H           0.9176  -17.7532   19.9562 H       1  UNL1        0.1442
     12 H           0.2726  -17.6217   18.3832 H       1  UNL1        0.1442
     13 O          -7.3330  -19.8092   20.6170 O.3     1  UNL1       -0.4706
     14 C          -8.3788  -18.8052   21.0020 C.3     1  UNL1        0.2320
     15 C          -9.2123  -19.0238   22.2299 C.ar    1  UNL1        0.0212
     16 C          -8.8944  -20.1565   23.1603 C.ar    1  UNL1       -0.0007
     17 C          -9.7279  -20.3750   24.3881 C.ar    1  UNL1       -0.0002
     18 C         -10.8794  -19.4608   24.6854 C.ar    1  UNL1       -0.0000
     19 C         -11.1973  -18.3281   23.7549 C.ar    1  UNL1       -0.0002
     20 C         -10.3638  -18.1095   22.5272 C.ar    1  UNL1       -0.0007
@<TRIPOS>BOND
     1     1     2    1
     2     2     3   ar
     3     3     4   ar
     4     4     5   ar
     5     5     6   ar
     6     6     7   ar
     7     7    13    1
     8    13    14    1
     9    14    15    1
    10    15    16   ar
    11    16    17   ar
    12    17    18   ar
    13    18    19   ar
    14    19    20   ar
    15     7     8   ar
    16     8     9   ar
    17     9    10   ar
    18    10     2   ar
    19     9     4   ar
    20    20    15   ar
    21     1    11    1
    22     1    12    1
@<TRIPOS>MOLECULE
*****
 20 22 0 0 0
SMALL
GASTEIGER

@<TRIPOS>ATOM
      1 N         -14.1526  -17.9137   24.3265 N.pl3   1  UNL1       -0.3375
      2 C         -12.7756  -18.1788   23.7941 C.ar    1  UNL1        0.1567
      3 N         -11.8020  -19.1864   24.3297 N.ar    1  UNL1       -0.2245
      4 C         -10.5551  -19.1132   23.4993 C.ar    1  UNL1        0.0894
      5 C          -9.2611  -19.8692   23.5627 C.ar    1  UNL1        0.0228
      6 C          -8.1700  -19.5723   22.5771 C.ar    1  UNL1        0.0385
      7 C          -8.3729  -18.5195   21.5282 C.ar    1  UNL1        0.1397
      8 C          -9.6668  -17.7635   21.4647 C.ar    1  UNL1        0.0450
      9 C         -10.7579  -18.0603   22.4503 C.ar    1  UNL1        0.0527
     10 S         -12.1303  -17.4829   22.6325 S.2     1  UNL1       -0.0519
     11 H         -14.4892  -18.4252   25.0974 H       1  UNL1        0.1442
     12 H         -14.7199  -17.2283   23.9050 H       1  UNL1        0.1442
     13 O          -7.2817  -18.2226   20.5426 O.3     1  UNL1       -0.4706
     14 C          -6.3041  -19.2942   20.1607 C.3     1  UNL1        0.2320
     15 C          -4.8512  -19.1396   20.5003 C.ar    1  UNL1        0.0212
     16 C          -3.8590  -18.8185   19.4221 C.ar    1  UNL1       -0.0007
     17 C          -2.4062  -18.6639   19.7617 C.ar    1  UNL1       -0.0002
     18 C          -1.9455  -18.8303   21.1795 C.ar    1  UNL1       -0.0000
     19 C          -2.9377  -19.1514   22.2577 C.ar    1  UNL1       -0.0002
     20 C          -4.3905  -19.3060   21.9181 C.ar    1  UNL1       -0.0007
@<TRIPOS>BOND
     1     1     2    1
     2     2     3   ar
     3     3     4   ar
     4     4     5   ar
     5     5     6   ar
     6     6     7   ar
     7     7    13    1
     8    13    14    1
     9    14    15    1
    10    15    16   ar
    11    16    17   ar
    12    17    18   ar
    13    18    19   ar
    14    19    20   ar
    15     7     8   ar
    16     8     9   ar
    17     9    10   ar
    18    10     2   ar
    19     9     4   ar
    20    20    15   ar
    21     1    11    1
    22     1    12    1
@<TRIPOS>MOLECULE
*****
 20 22 0 0 0
SMALL
GASTEIGER

@<TRIPOS>ATOM
      1 N         -14.0732  -17.8227   24.4709 N.pl3   1  UNL1       -0.3375
      2 C         -12.9565  -18.1114   23.5119 C.ar    1  UNL1        0.1567
      3 N         -12.9906  -17.8950   22.0280 N.ar    1  UNL1       -0.2245
      4 C         -11.6648  -18.3170   21.4674 C.ar    1  UNL1        0.0894
      5 C         -11.1244  -18.3283   20.0682 C.ar    1  UNL1        0.0228
      6 C          -9.7306  -18.8169   19.8065 C.ar    1  UNL1        0.0385
      7 C          -8.8772  -19.2942   20.9440 C.ar    1  UNL1        0.1397
      8 C          -9.4175  -19.2828   22.3432 C.ar    1  UNL1        0.0450
      9 C         -10.8113  -18.7942   22.6049 C.ar    1  UNL1        0.0527
     10 S         -11.6097  -18.6672   23.8685 S.2     1  UNL1       -0.0519
     11 H         -14.9248  -17.4568   24.1391 H       1  UNL1        0.1442
     12 H         -13.9546  -17.9993   25.4321 H       1  UNL1        0.1442
     13 O          -7.4833  -19.7828   20.6822 O.3     1  UNL1       -0.4706
     14 C          -6.4332  -19.6596   21.7461 C.3     1  UNL1        0.2320
     15 C          -5.0009  -19.4309   21.3634 C.ar    1  UNL1        0.0212
     16 C          -3.9530  -19.2931   22.4277 C.ar    1  UNL1       -0.0007
     17 C          -2.5209  -19.0644   22.0450 C.ar    1  UNL1       -0.0002
     18 C          -2.1366  -18.9736   20.5979 C.ar    1  UNL1       -0.0000
     19 C          -3.1845  -19.1114   19.5336 C.ar    1  UNL1       -0.0002
     20 C          -4.6166  -19.3401   19.9163 C.ar    1  UNL1       -0.0007
@<TRIPOS>BOND
     1     1     2    1
     2     2     3   ar
     3     3     4   ar
     4     4     5   ar
     5     5     6   ar
     6     6     7   ar
     7     7    13    1
     8    13    14    1
     9    14    15    1
    10    15    16   ar
    11    16    17   ar
    12    17    18   ar
    13    18    19   ar
    14    19    20   ar
    15     7     8   ar
    16     8     9   ar
    17     9    10   ar
    18    10     2   ar
    19     9     4   ar
    20    20    15   ar
    21     1    11    1
    22     1    12    1
@<TRIPOS>MOLECULE
*****
 20 22 0 0 0
SMALL
GASTEIGER

@<TRIPOS>ATOM
      1 N          -0.4853  -17.4327   20.9163 N.pl3   1  UNL1       -0.3375
      2 C          -1.8259  -18.1019   20.9875 C.ar    1  UNL1        0.1567
      3 N          -2.3087  -19.2060   20.0944 N.ar    1  UNL1       -0.2245
      4 C          -3.7002  -19.5710   20.5192 C.ar    1  UNL1        0.0894
      5 C          -4.6726  -20.5898   20.0030 C.ar    1  UNL1        0.0228
      6 C          -6.0221  -20.7300   20.6426 C.ar    1  UNL1        0.0385
      7 C          -6.3993  -19.8514   21.7984 C.ar    1  UNL1        0.1397
      8 C          -5.4269  -18.8326   22.3146 C.ar    1  UNL1        0.0450
      9 C          -4.0774  -18.6924   21.6750 C.ar    1  UNL1        0.0527
     10 S          -2.9190  -17.7845   21.9644 S.2     1  UNL1       -0.0519
     11 H           0.1690  -17.7125   20.2360 H       1  UNL1        0.1442
     12 H          -0.2598  -16.7137   21.5499 H       1  UNL1        0.1442
     13 O          -7.7489  -19.9917   22.4379 O.3     1  UNL1       -0.4706
     14 C          -8.4676  -18.7774   22.9466 C.3     1  UNL1        0.2320
     15 C          -9.8461  -18.4582   22.4484 C.ar    1  UNL1        0.0212
     16 C         -10.1151  -18.3966   20.9741 C.ar    1  UNL1       -0.0007
     17 C         -11.4935  -18.0774   20.4760 C.ar    1  UNL1       -0.0002
     18 C         -12.6028  -17.8197   21.4522 C.ar    1  UNL1       -0.0000
     19 C         -12.3337  -17.8813   22.9266 C.ar    1  UNL1       -0.0002
     20 C         -10.9554  -18.2005   23.4247 C.ar    1  UNL1       -0.0007
@<TRIPOS>BOND
     1     1     2    1
     2     2     3   ar
     3     3     4   ar
     4     4     5   ar
     5     5     6   ar
     6     6     7   ar
     7     7    13    1
     8    13    14    1
     9    14    15    1
    10    15    16   ar
    11    16    17   ar
    12    17    18   ar
    13    18    19   ar
    14    19    20   ar
    15     7     8   ar
    16     8     9   ar
    17     9    10   ar
    18    10     2   ar
    19     9     4   ar
    20    20    15   ar
    21     1    11    1
    22     1    12    1
@<TRIPOS>MOLECULE
*****
 20 22 0 0 0
SMALL
GASTEIGER

@<TRIPOS>ATOM
      1 N         -13.3727  -17.8794   23.4945 N.pl3   1  UNL1       -0.3375
      2 C         -11.8961  -17.9692   23.2462 C.ar    1  UNL1        0.1567
      3 N         -10.9374  -16.8163   23.2042 N.ar    1  UNL1       -0.2245
      4 C          -9.5677  -17.3621   22.9284 C.ar    1  UNL1        0.0894
      5 C          -8.2329  -16.6947   22.7776 C.ar    1  UNL1        0.0228
      6 C          -7.0103  -17.5175   22.4984 C.ar    1  UNL1        0.0385
      7 C          -7.1224  -19.0078   22.3699 C.ar    1  UNL1        0.1397
      8 C          -8.4572  -19.6752   22.5207 C.ar    1  UNL1        0.0450
      9 C          -9.6799  -18.8524   22.7999 C.ar    1  UNL1        0.0527
     10 S         -11.1189  -19.2276   22.9964 S.2     1  UNL1       -0.0519
     11 H         -13.7935  -17.0029   23.6490 H       1  UNL1        0.1442
     12 H         -13.9210  -18.6971   23.5030 H       1  UNL1        0.1442
     13 O          -5.8997  -19.8307   22.0907 O.3     1  UNL1       -0.4706
     14 C          -4.5523  -19.3482   22.5399 C.3     1  UNL1        0.2320
     15 C          -3.6162  -18.7133   21.5546 C.ar    1  UNL1        0.0212
     16 C          -2.7194  -17.5917   21.9876 C.ar    1  UNL1       -0.0007
     17 C          -1.7833  -16.9569   21.0024 C.ar    1  UNL1       -0.0002
     18 C          -1.7441  -17.4437   19.5841 C.ar    1  UNL1       -0.0000
     19 C          -2.6410  -18.5653   19.1511 C.ar    1  UNL1       -0.0002
     20 C          -3.5770  -19.2001   20.1363 C.ar    1  UNL1       -0.0007
@<TRIPOS>BOND
     1     1     2    1
     2     2     3   ar
     3     3     4   ar
     4     4     5   ar
     5     5     6   ar
     6     6     7   ar
     7     7    13    1
     8    13    14    1
     9    14    15    1
    10    15    16   ar
    11    16    17   ar
    12    17    18   ar
    13    18    19   ar
    14    19    20   ar
    15     7     8   ar
    16     8     9   ar
    17     9    10   ar
    18    10     2   ar
    19     9     4   ar
    20    20    15   ar
    21     1    11    1
    22     1    12    1
@<TRIPOS>MOLECULE
*****
 20 22 0 0 0
SMALL
GASTEIGER

@<TRIPOS>ATOM
      1 N          -0.1035  -17.3216   20.7219 N.pl3   1  UNL1       -0.3375
      2 C          -1.4213  -18.0332   20.8059 C.ar    1  UNL1        0.1567
      3 N          -1.9148  -19.0893   19.8619 N.ar    1  UNL1       -0.2245
      4 C          -3.2754  -19.5225   20.3212 C.ar    1  UNL1        0.0894
      5 C          -4.2429  -20.5329   19.7800 C.ar    1  UNL1        0.0228
      6 C          -5.5578  -20.7551   20.4667 C.ar    1  UNL1        0.0385
      7 C          -5.9053  -19.9668   21.6946 C.ar    1  UNL1        0.1397
      8 C          -4.9378  -18.9563   22.2359 C.ar    1  UNL1        0.0450
      9 C          -3.6229  -18.7342   21.5492 C.ar    1  UNL1        0.0527
     10 S          -2.4770  -17.8138   21.8487 S.2     1  UNL1       -0.0519
     11 H           0.5264  -17.5361   19.9964 H       1  UNL1        0.1442
     12 H           0.1314  -16.6400   21.3923 H       1  UNL1        0.1442
     13 O          -7.2203  -20.1889   22.3814 O.3     1  UNL1       -0.4706
     14 C          -8.3421  -19.2123   22.1874 C.3     1  UNL1        0.2320
     15 C          -8.4139  -17.9750   23.0323 C.ar    1  UNL1        0.0212
     16 C          -7.7133  -16.7241   22.5915 C.ar    1  UNL1       -0.0007
     17 C          -7.7851  -15.4868   23.4364 C.ar    1  UNL1       -0.0002
     18 C          -8.5575  -15.5004   24.7222 C.ar    1  UNL1       -0.0000
     19 C          -9.2581  -16.7513   25.1630 C.ar    1  UNL1       -0.0002
     20 C          -9.1863  -17.9886   24.3181 C.ar    1  UNL1       -0.0007
@<TRIPOS>BOND
     1     1     2    1
     2     2     3   ar
     3     3     4   ar
     4     4     5   ar
     5     5     6   ar
     6     6     7   ar
     7     7    13    1
     8    13    14    1
     9    14    15    1
    10    15    16   ar
    11    16    17   ar
    12    17    18   ar
    13    18    19   ar
    14    19    20   ar
    15     7     8   ar
    16     8     9   ar
    17     9    10   ar
    18    10     2   ar
    19     9     4   ar
    20    20    15   ar
    21     1    11    1
    22     1    12    1
@<TRIPOS>MOLECULE
*****
 20 22 0 0 0
SMALL
GASTEIGER

@<TRIPOS>ATOM
      1 N          -1.6344  -18.5447   22.3504 N.pl3   1  UNL1       -0.3375
      2 C          -3.1055  -18.6032   22.0635 C.ar    1  UNL1        0.1567
      3 N          -4.1972  -18.0692   22.9427 N.ar    1  UNL1       -0.2245
      4 C          -5.5097  -18.3420   22.2696 C.ar    1  UNL1        0.0894
      5 C          -6.9240  -18.0413   22.6688 C.ar    1  UNL1        0.0228
      6 C          -8.0577  -18.4434   21.7727 C.ar    1  UNL1        0.0385
      7 C          -7.7772  -19.1461   20.4775 C.ar    1  UNL1        0.1397
      8 C          -6.3629  -19.4468   20.0784 C.ar    1  UNL1        0.0450
      9 C          -5.2292  -19.0447   20.9744 C.ar    1  UNL1        0.0527
     10 S          -3.7433  -19.2062   20.8471 S.2     1  UNL1       -0.0519
     11 H          -1.3111  -18.1260   23.1807 H       1  UNL1        0.1442
     12 H          -0.9921  -18.9249   21.7084 H       1  UNL1        0.1442
     13 O          -8.9110  -19.5482   19.5815 O.3     1  UNL1       -0.4706
     14 C         -10.2652  -19.8256   20.1639 C.3     1  UNL1        0.2320
     15 C         -11.0487  -18.7169   20.8018 C.ar    1  UNL1        0.0212
     16 C         -11.5677  -18.8736   22.2004 C.ar    1  UNL1       -0.0007
     17 C         -12.3512  -17.7649   22.8382 C.ar    1  UNL1       -0.0002
     18 C         -12.6157  -16.4995   22.0775 C.ar    1  UNL1       -0.0000
     19 C         -12.0967  -16.3427   20.6789 C.ar    1  UNL1       -0.0002
     20 C         -11.3132  -17.4514   20.0411 C.ar    1  UNL1       -0.0007
@<TRIPOS>BOND
     1     1     2    1
     2     2     3   ar
     3     3     4   ar
     4     4     5   ar
     5     5     6   ar
     6     6     7   ar
     7     7    13    1
     8    13    14    1
     9    14    15    1
    10    15    16   ar
    11    16    17   ar
    12    17    18   ar
    13    18    19   ar
    14    19    20   ar
    15     7     8   ar
    16     8     9   ar
    17     9    10   ar
    18    10     2   ar
    19     9     4   ar
    20    20    15   ar
    21     1    11    1
    22     1    12    1
@<TRIPOS>MOLECULE
*****
 20 22 0 0 0
SMALL
GASTEIGER

@<TRIPOS>ATOM
      1 N          -5.5491  -14.6155   26.0027 N.pl3   1  UNL1       -0.3375
      2 C          -5.9316  -15.5508   24.8941 C.ar    1  UNL1        0.1567
      3 N          -5.0776  -16.6488   24.3328 N.ar    1  UNL1       -0.2245
      4 C          -5.8534  -17.3289   23.2440 C.ar    1  UNL1        0.0894
      5 C          -5.5179  -18.4777   22.3398 C.ar    1  UNL1        0.0228
      6 C          -6.5159  -18.9488   21.3240 C.ar    1  UNL1        0.0385
      7 C          -7.8494  -18.2712   21.2123 C.ar    1  UNL1        0.1397
      8 C          -8.1850  -17.1224   22.1166 C.ar    1  UNL1        0.0450
      9 C          -7.1870  -16.6512   23.1324 C.ar    1  UNL1        0.0527
     10 S          -7.2352  -15.5523   24.1522 S.2     1  UNL1       -0.0519
     11 H          -4.6656  -14.6938   26.4299 H       1  UNL1        0.1442
     12 H          -6.1815  -13.9234   26.3031 H       1  UNL1        0.1442
     13 O          -8.8475  -18.7423   20.1964 O.3     1  UNL1       -0.4706
     14 C         -10.0074  -19.5924   20.6228 C.3     1  UNL1        0.2320
     15 C         -10.9392  -19.1074   21.6937 C.ar    1  UNL1        0.0212
     16 C         -10.7792  -19.5935   23.1037 C.ar    1  UNL1       -0.0007
     17 C         -11.7109  -19.1084   24.1744 C.ar    1  UNL1       -0.0002
     18 C         -12.8026  -18.1373   23.8352 C.ar    1  UNL1       -0.0000
     19 C         -12.9626  -17.6512   22.4252 C.ar    1  UNL1       -0.0002
     20 C         -12.0309  -18.1362   21.3545 C.ar    1  UNL1       -0.0007
@<TRIPOS>BOND
     1     1     2    1
     2     2     3   ar
     3     3     4   ar
     4     4     5   ar
     5     5     6   ar
     6     6     7   ar
     7     7    13    1
     8    13    14    1
     9    14    15    1
    10    15    16   ar
    11    16    17   ar
    12    17    18   ar
    13    18    19   ar
    14    19    20   ar
    15     7     8   ar
    16     8     9   ar
    17     9    10   ar
    18    10     2   ar
    19     9     4   ar
    20    20    15   ar
    21     1    11    1
    22     1    12    1
@<TRIPOS>MOLECULE
*****
 20 22 0 0 0
SMALL
GASTEIGER

@<TRIPOS>ATOM
      1 N          -1.1626  -18.4986   22.0891 N.pl3   1  UNL1       -0.3375
      2 C          -2.6600  -18.4680   22.1727 C.ar    1  UNL1        0.1567
      3 N          -3.4857  -17.3879   22.8063 N.ar    1  UNL1       -0.2245
      4 C          -4.9306  -17.7644   22.6626 C.ar    1  UNL1        0.0894
      5 C          -6.1937  -17.0815   23.0962 C.ar    1  UNL1        0.0228
      6 C          -7.5240  -17.7114   22.8074 C.ar    1  UNL1        0.0385
      7 C          -7.5912  -19.0242   22.0849 C.ar    1  UNL1        0.1397
      8 C          -6.3281  -19.7071   21.6513 C.ar    1  UNL1        0.0450
      9 C          -4.9978  -19.0772   21.9401 C.ar    1  UNL1        0.0527
     10 S          -3.5945  -19.5120   21.6373 S.2     1  UNL1       -0.0519
     11 H          -0.6330  -17.7624   22.4723 H       1  UNL1        0.1442
     12 H          -0.7094  -19.2549   21.6510 H       1  UNL1        0.1442
     13 O          -8.9216  -19.6541   21.7960 O.3     1  UNL1       -0.4706
     14 C          -9.8436  -20.0103   22.9243 C.3     1  UNL1        0.2320
     15 C         -11.1162  -19.2417   23.1242 C.ar    1  UNL1        0.0212
     16 C         -11.7639  -18.5483   21.9625 C.ar    1  UNL1       -0.0007
     17 C         -13.0364  -17.7798   22.1624 C.ar    1  UNL1       -0.0002
     18 C         -13.6612  -17.7047   23.5240 C.ar    1  UNL1       -0.0000
     19 C         -13.0135  -18.3981   24.6857 C.ar    1  UNL1       -0.0002
     20 C         -11.7410  -19.1666   24.4858 C.ar    1  UNL1       -0.0007
@<TRIPOS>BOND
     1     1     2    1
     2     2     3   ar
     3     3     4   ar
     4     4     5   ar
     5     5     6   ar
     6     6     7   ar
     7     7    13    1
     8    13    14    1
     9    14    15    1
    10    15    16   ar
    11    16    17   ar
    12    17    18   ar
    13    18    19   ar
    14    19    20   ar
    15     7     8   ar
    16     8     9   ar
    17     9    10   ar
    18    10     2   ar
    19     9     4   ar
    20    20    15   ar
    21     1    11    1
    22     1    12    1
