@<TRIPOS>MOLECULE
*****
 23 26 0 0 0
SMALL
GASTEIGER

@<TRIPOS>ATOM
      1 C          -7.8852  -18.2015   21.9733 C.2     1  UNL1       -0.0420
      2 C          -8.4969  -16.8867   22.3570 C.2     1  UNL1       -0.0240
      3 C          -9.9802  -16.9903   22.1598 C.ar    1  UNL1       -0.0078
      4 C         -11.0925  -16.0073   22.3753 C.ar    1  UNL1       -0.0006
      5 C         -12.5099  -16.4031   22.0853 C.ar    1  UNL1       -0.0000
      6 C         -12.8151  -17.7820   21.5797 C.ar    1  UNL1       -0.0003
      7 C         -11.7028  -18.7650   21.3642 C.ar    1  UNL1       -0.0040
      8 C         -10.2854  -18.3692   21.6543 C.ar    1  UNL1       -0.0184
      9 C          -8.9906  -19.1177   21.5390 C.3     1  UNL1        0.0480
     10 C          -6.4247  -18.5405   22.0164 C.3     1  UNL1        0.0394
     11 C          -5.7839  -19.2456   20.8578 C.3     1  UNL1        0.0766
     12 F          -0.7693  -18.6911   19.9784 F       1  UNL1       -0.2343
     13 C          -2.2380  -18.8535   20.2360 C.3     1  UNL1        0.1927
     14 C          -3.0627  -19.4138   21.3567 C.3     1  UNL1        0.1093
     15 N          -4.3152  -19.0832   20.6003 N.3     1  UNL1       -0.2677
     16 C          -3.4904  -18.5229   19.4796 C.3     1  UNL1        0.1093
     17 C          -7.7553  -15.6801   22.8511 C.3     1  UNL1        0.0730
     18 C          -7.3841  -15.5693   24.3003 C.ar    1  UNL1        0.0825
     19 C          -8.4145  -15.8242   25.3601 C.ar    1  UNL1        0.1139
     20 N          -8.0433  -15.7134   26.8092 N.ar    1  UNL1       -0.2394
     21 C          -6.6416  -15.3478   27.1985 C.ar    1  UNL1        0.1195
     22 C          -5.6112  -15.0930   26.1387 C.ar    1  UNL1        0.1191
     23 N          -5.9823  -15.2037   24.6896 N.ar    1  UNL1       -0.2446
@<TRIPOS>BOND
     1    12    13    1
     2    13    14    1
     3    14    15    1
     4    15    11    1
     5    11    10    1
     6    10     1    1
     7     1     2    2
     8     2    17    1
     9    17    18    1
    10    18    19   ar
    11    19    20   ar
    12    20    21   ar
    13    21    22   ar
    14    22    23   ar
    15     2     3    1
    16     3     4   ar
    17     4     5   ar
    18     5     6   ar
    19     6     7   ar
    20     7     8   ar
    21     8     9    1
    22    15    16    1
    23    16    13    1
    24     9     1    1
    25    23    18   ar
    26     8     3   ar
@<TRIPOS>MOLECULE
*****
 23 26 0 0 0
SMALL
GASTEIGER

@<TRIPOS>ATOM
      1 C          -6.1247  -18.3546   22.2609 C.2     1  UNL1       -0.0420
      2 C          -6.1593  -19.2645   21.0689 C.2     1  UNL1       -0.0240
      3 C          -7.5646  -19.2888   20.5449 C.ar    1  UNL1       -0.0078
      4 C          -8.1925  -20.0102   19.3894 C.ar    1  UNL1       -0.0006
      5 C          -9.6544  -19.8366   19.1020 C.ar    1  UNL1       -0.0000
      6 C         -10.4884  -18.9417   19.9700 C.ar    1  UNL1       -0.0003
      7 C          -9.8604  -18.2203   21.1255 C.ar    1  UNL1       -0.0040
      8 C          -8.3985  -18.3938   21.4129 C.ar    1  UNL1       -0.0184
      9 C          -7.5086  -17.8165   22.4735 C.3     1  UNL1        0.0480
     10 C          -4.9181  -18.0383   23.0940 C.3     1  UNL1        0.0394
     11 C          -4.6444  -16.6236   23.5108 C.3     1  UNL1        0.0766
     12 F          -6.8719  -14.7145   27.7086 F       1  UNL1       -0.2343
     13 C          -6.2195  -15.2737   26.4791 C.3     1  UNL1        0.1927
     14 C          -6.5592  -15.3034   25.0184 C.3     1  UNL1        0.1093
     15 N          -5.2968  -16.0645   24.7403 N.3     1  UNL1       -0.2677
     16 C          -4.9572  -16.0347   26.2011 C.3     1  UNL1        0.1093
     17 C          -4.9933  -20.0180   20.5008 C.3     1  UNL1        0.0730
     18 C          -3.7061  -19.3030   20.2141 C.ar    1  UNL1        0.0825
     19 C          -2.4405  -19.7357   20.8931 C.ar    1  UNL1        0.1139
     20 N          -1.1534  -19.0208   20.6065 N.ar    1  UNL1       -0.2394
     21 C          -1.1319  -17.8732   19.6408 C.ar    1  UNL1        0.1195
     22 C          -2.3975  -17.4405   18.9618 C.ar    1  UNL1        0.1191
     23 N          -3.6846  -18.1554   19.2484 N.ar    1  UNL1       -0.2446
@<TRIPOS>BOND
     1    12    13    1
     2    13    14    1
     3    14    15    1
     4    15    11    1
     5    11    10    1
     6    10     1    1
     7     1     2    2
     8     2    17    1
     9    17    18    1
    10    18    19   ar
    11    19    20   ar
    12    20    21   ar
    13    21    22   ar
    14    22    23   ar
    15     2     3    1
    16     3     4   ar
    17     4     5   ar
    18     5     6   ar
    19     6     7   ar
    20     7     8   ar
    21     8     9    1
    22    15    16    1
    23    16    13    1
    24     9     1    1
    25    23    18   ar
    26     8     3   ar
@<TRIPOS>MOLECULE
*****
 23 26 0 0 0
SMALL
GASTEIGER

@<TRIPOS>ATOM
      1 C          -8.2076  -18.3279   21.6951 C.2     1  UNL1       -0.0420
      2 C          -6.7584  -18.5505   22.0118 C.2     1  UNL1       -0.0240
      3 C          -6.3104  -17.4518   22.9295 C.ar    1  UNL1       -0.0078
      4 C          -4.9864  -17.1558   23.5693 C.ar    1  UNL1       -0.0006
      5 C          -4.8347  -15.9583   24.4597 C.ar    1  UNL1       -0.0000
      6 C          -6.0071  -15.0566   24.7102 C.ar    1  UNL1       -0.0003
      7 C          -7.3310  -15.3526   24.0703 C.ar    1  UNL1       -0.0040
      8 C          -7.4827  -16.5501   23.1800 C.ar    1  UNL1       -0.0184
      9 C          -8.6552  -17.0916   22.4171 C.3     1  UNL1        0.0480
     10 C          -9.0596  -19.1902   20.8116 C.3     1  UNL1        0.0394
     11 C         -10.4181  -18.7172   20.3867 C.3     1  UNL1        0.0766
     12 F         -13.9653  -17.6168   23.9130 F       1  UNL1       -0.2343
     13 C         -12.9263  -17.9391   22.8802 C.3     1  UNL1        0.1927
     14 C         -12.6616  -17.5023   21.4698 C.3     1  UNL1        0.1093
     15 N         -11.4571  -18.3949   21.4195 N.3     1  UNL1       -0.2677
     16 C         -11.7219  -18.8316   22.8299 C.3     1  UNL1        0.1093
     17 C          -5.9068  -19.6744   21.5006 C.3     1  UNL1        0.0730
     18 C          -4.5073  -19.4026   21.0337 C.ar    1  UNL1        0.0825
     19 C          -3.3413  -19.9641   21.7921 C.ar    1  UNL1        0.1139
     20 N          -1.9420  -19.6923   21.3254 N.ar    1  UNL1       -0.2394
     21 C          -1.7086  -18.8591   20.1001 C.ar    1  UNL1        0.1195
     22 C          -2.8746  -18.2977   19.3417 C.ar    1  UNL1        0.1191
     23 N          -4.2740  -18.5694   19.8084 N.ar    1  UNL1       -0.2446
@<TRIPOS>BOND
     1    12    13    1
     2    13    14    1
     3    14    15    1
     4    15    11    1
     5    11    10    1
     6    10     1    1
     7     1     2    2
     8     2    17    1
     9    17    18    1
    10    18    19   ar
    11    19    20   ar
    12    20    21   ar
    13    21    22   ar
    14    22    23   ar
    15     2     3    1
    16     3     4   ar
    17     4     5   ar
    18     5     6   ar
    19     6     7   ar
    20     7     8   ar
    21     8     9    1
    22    15    16    1
    23    16    13    1
    24     9     1    1
    25    23    18   ar
    26     8     3   ar
@<TRIPOS>MOLECULE
*****
 23 26 0 0 0
SMALL
GASTEIGER

@<TRIPOS>ATOM
      1 C          -7.0767  -19.1385   22.0775 C.2     1  UNL1       -0.0420
      2 C          -6.4610  -17.8581   22.5586 C.2     1  UNL1       -0.0240
      3 C          -4.9698  -18.0120   22.5052 C.ar    1  UNL1       -0.0078
      4 C          -3.8511  -17.0773   22.8583 C.ar    1  UNL1       -0.0006
      5 C          -2.4264  -17.5181   22.6973 C.ar    1  UNL1       -0.0000
      6 C          -2.1205  -18.8937   22.1831 C.ar    1  UNL1       -0.0003
      7 C          -3.2393  -19.8283   21.8300 C.ar    1  UNL1       -0.0040
      8 C          -4.6639  -19.3875   21.9910 C.ar    1  UNL1       -0.0184
      9 C          -5.9660  -20.0837   21.7267 C.3     1  UNL1        0.0480
     10 C          -8.5451  -19.4236   21.9666 C.3     1  UNL1        0.0394
     11 C          -9.3447  -19.7303   23.1981 C.3     1  UNL1        0.0766
     12 F         -13.9405  -17.5730   23.8706 F       1  UNL1       -0.2343
     13 C         -12.5944  -18.2049   23.6736 C.3     1  UNL1        0.1927
     14 C         -11.5251  -18.7289   24.5857 C.3     1  UNL1        0.1093
     15 N         -10.6908  -19.0985   23.3951 N.3     1  UNL1       -0.2677
     16 C         -11.7602  -18.5744   22.4831 C.3     1  UNL1        0.1093
     17 C          -7.2056  -16.6380   23.0134 C.3     1  UNL1        0.0730
     18 C          -7.1761  -16.2364   24.4584 C.ar    1  UNL1        0.0825
     19 C          -5.9815  -15.5186   25.0131 C.ar    1  UNL1        0.1139
     20 N          -5.9519  -15.1171   26.4580 N.ar    1  UNL1       -0.2394
     21 C          -7.1169  -15.4334   27.3483 C.ar    1  UNL1        0.1195
     22 C          -8.3115  -16.1512   26.7936 C.ar    1  UNL1        0.1191
     23 N          -8.3411  -16.5528   25.3487 N.ar    1  UNL1       -0.2446
@<TRIPOS>BOND
     1    12    13    1
     2    13    14    1
     3    14    15    1
     4    15    11    1
     5    11    10    1
     6    10     1    1
     7     1     2    2
     8     2    17    1
     9    17    18    1
    10    18    19   ar
    11    19    20   ar
    12    20    21   ar
    13    21    22   ar
    14    22    23   ar
    15     2     3    1
    16     3     4   ar
    17     4     5   ar
    18     5     6   ar
    19     6     7   ar
    20     7     8   ar
    21     8     9    1
    22    15    16    1
    23    16    13    1
    24     9     1    1
    25    23    18   ar
    26     8     3   ar
@<TRIPOS>MOLECULE
*****
 23 26 0 0 0
SMALL
GASTEIGER

@<TRIPOS>ATOM
      1 C          -4.9650  -19.6240   21.3611 C.2     1  UNL1       -0.0420
      2 C          -4.2027  -18.5705   22.1088 C.2     1  UNL1       -0.0240
      3 C          -3.0886  -18.0905   21.2266 C.ar    1  UNL1       -0.0078
      4 C          -2.0165  -17.0621   21.4336 C.ar    1  UNL1       -0.0006
      5 C          -1.0181  -16.7905   20.3476 C.ar    1  UNL1       -0.0000
      6 C          -1.0918  -17.5473   19.0546 C.ar    1  UNL1       -0.0003
      7 C          -2.1638  -18.5758   18.8476 C.ar    1  UNL1       -0.0040
      8 C          -3.1622  -18.8474   19.9336 C.ar    1  UNL1       -0.0184
      9 C          -4.3219  -19.7951   20.0168 C.3     1  UNL1        0.0480
     10 C          -6.1604  -20.3747   21.8686 C.3     1  UNL1        0.0394
     11 C          -7.3722  -19.6259   22.3385 C.3     1  UNL1        0.0766
     12 F         -11.1524  -18.5526   19.0544 F       1  UNL1       -0.2343
     13 C         -10.0452  -18.8670   20.0163 C.3     1  UNL1        0.1927
     14 C          -9.8260  -18.6596   21.4856 C.3     1  UNL1        0.1093
     15 N          -8.4794  -19.3115   21.3766 N.3     1  UNL1       -0.2677
     16 C          -8.6987  -19.5188   19.9073 C.3     1  UNL1        0.1093
     17 C          -4.5020  -18.0826   23.4953 C.3     1  UNL1        0.0730
     18 C          -5.4527  -16.9403   23.6995 C.ar    1  UNL1        0.0825
     19 C          -5.2232  -15.9639   24.8148 C.ar    1  UNL1        0.1139
     20 N          -6.1737  -14.8216   25.0191 N.ar    1  UNL1       -0.2394
     21 C          -7.3537  -14.6559   24.1080 C.ar    1  UNL1        0.1195
     22 C          -7.5832  -15.6323   22.9928 C.ar    1  UNL1        0.1191
     23 N          -6.6327  -16.7746   22.7885 N.ar    1  UNL1       -0.2446
@<TRIPOS>BOND
     1    12    13    1
     2    13    14    1
     3    14    15    1
     4    15    11    1
     5    11    10    1
     6    10     1    1
     7     1     2    2
     8     2    17    1
     9    17    18    1
    10    18    19   ar
    11    19    20   ar
    12    20    21   ar
    13    21    22   ar
    14    22    23   ar
    15     2     3    1
    16     3     4   ar
    17     4     5   ar
    18     5     6   ar
    19     6     7   ar
    20     7     8   ar
    21     8     9    1
    22    15    16    1
    23    16    13    1
    24     9     1    1
    25    23    18   ar
    26     8     3   ar
@<TRIPOS>MOLECULE
*****
 23 26 0 0 0
SMALL
GASTEIGER

@<TRIPOS>ATOM
      1 C          -7.8548  -19.2892   20.3378 C.2     1  UNL1       -0.0420
      2 C          -7.2416  -19.1349   21.6981 C.2     1  UNL1       -0.0240
      3 C          -5.7619  -19.3418   21.5658 C.ar    1  UNL1       -0.0078
      4 C          -4.6500  -19.3097   22.5720 C.ar    1  UNL1       -0.0006
      5 C          -3.2367  -19.5598   22.1362 C.ar    1  UNL1       -0.0000
      6 C          -2.9352  -19.8420   20.6942 C.ar    1  UNL1       -0.0003
      7 C          -4.0471  -19.8740   19.6879 C.ar    1  UNL1       -0.0040
      8 C          -5.4604  -19.6240   20.1237 C.ar    1  UNL1       -0.0184
      9 C          -6.7539  -19.5914   19.3648 C.3     1  UNL1        0.0480
     10 C          -9.3127  -19.1633   20.0085 C.3     1  UNL1        0.0394
     11 C         -10.3374  -19.8404   20.8696 C.3     1  UNL1        0.0766
     12 F         -13.6606  -17.0390   23.5782 F       1  UNL1       -0.2343
     13 C         -12.6873  -17.8595   22.7849 C.3     1  UNL1        0.1927
     14 C         -11.6629  -18.9039   23.1165 C.3     1  UNL1        0.1093
     15 N         -11.3107  -19.0199   21.6630 N.3     1  UNL1       -0.2677
     16 C         -12.3351  -17.9755   21.3315 C.3     1  UNL1        0.1093
     17 C          -7.9788  -18.8276   22.9678 C.3     1  UNL1        0.0730
     18 C          -7.9175  -17.4489   23.5558 C.ar    1  UNL1        0.0825
     19 C          -6.7936  -16.5261   23.1882 C.ar    1  UNL1        0.1139
     20 N          -6.7322  -15.1475   23.7761 N.ar    1  UNL1       -0.2394
     21 C          -7.7948  -14.6918   24.7318 C.ar    1  UNL1        0.1195
     22 C          -8.9188  -15.6147   25.0994 C.ar    1  UNL1        0.1191
     23 N          -8.9801  -16.9932   24.5114 N.ar    1  UNL1       -0.2446
@<TRIPOS>BOND
     1    12    13    1
     2    13    14    1
     3    14    15    1
     4    15    11    1
     5    11    10    1
     6    10     1    1
     7     1     2    2
     8     2    17    1
     9    17    18    1
    10    18    19   ar
    11    19    20   ar
    12    20    21   ar
    13    21    22   ar
    14    22    23   ar
    15     2     3    1
    16     3     4   ar
    17     4     5   ar
    18     5     6   ar
    19     6     7   ar
    20     7     8   ar
    21     8     9    1
    22    15    16    1
    23    16    13    1
    24     9     1    1
    25    23    18   ar
    26     8     3   ar
@<TRIPOS>MOLECULE
*****
 23 26 0 0 0
SMALL
GASTEIGER

@<TRIPOS>ATOM
      1 C          -7.1742  -19.4356   22.1874 C.2     1  UNL1       -0.0420
      2 C          -6.7007  -18.0943   22.6634 C.2     1  UNL1       -0.0240
      3 C          -5.2024  -18.0801   22.5941 C.ar    1  UNL1       -0.0078
      4 C          -4.1917  -17.0260   22.9364 C.ar    1  UNL1       -0.0006
      5 C          -2.7284  -17.3045   22.7598 C.ar    1  UNL1       -0.0000
      6 C          -2.2759  -18.6371   22.2408 C.ar    1  UNL1       -0.0003
      7 C          -3.2866  -19.6912   21.8985 C.ar    1  UNL1       -0.0040
      8 C          -4.7498  -19.4127   22.0751 C.ar    1  UNL1       -0.0184
      9 C          -5.9685  -20.2504   21.8237 C.3     1  UNL1        0.0480
     10 C          -8.6026  -19.8834   22.0917 C.3     1  UNL1        0.0394
     11 C          -9.4113  -20.0825   23.3391 C.3     1  UNL1        0.0766
     12 F         -13.8727  -17.6349   23.9164 F       1  UNL1       -0.2343
     13 C         -12.5660  -18.3518   23.7473 C.3     1  UNL1        0.1927
     14 C         -11.4547  -18.7624   24.6674 C.3     1  UNL1        0.1093
     15 N         -10.7180  -19.3656   23.5082 N.3     1  UNL1       -0.2677
     16 C         -11.8294  -18.9549   22.5883 C.3     1  UNL1        0.1093
     17 C          -7.5725  -16.9652   23.1275 C.3     1  UNL1        0.0730
     18 C          -8.3442  -16.1542   22.1289 C.ar    1  UNL1        0.0825
     19 C          -9.7247  -16.5789   21.7241 C.ar    1  UNL1        0.1139
     20 N         -10.4963  -15.7680   20.7257 N.ar    1  UNL1       -0.2394
     21 C          -9.8874  -14.5323   20.1320 C.ar    1  UNL1        0.1195
     22 C          -8.5069  -14.1077   20.5368 C.ar    1  UNL1        0.1191
     23 N          -7.7353  -14.9186   21.5353 N.ar    1  UNL1       -0.2446
@<TRIPOS>BOND
     1    12    13    1
     2    13    14    1
     3    14    15    1
     4    15    11    1
     5    11    10    1
     6    10     1    1
     7     1     2    2
     8     2    17    1
     9    17    18    1
    10    18    19   ar
    11    19    20   ar
    12    20    21   ar
    13    21    22   ar
    14    22    23   ar
    15     2     3    1
    16     3     4   ar
    17     4     5   ar
    18     5     6   ar
    19     6     7   ar
    20     7     8   ar
    21     8     9    1
    22    15    16    1
    23    16    13    1
    24     9     1    1
    25    23    18   ar
    26     8     3   ar
@<TRIPOS>MOLECULE
*****
 23 26 0 0 0
SMALL
GASTEIGER

@<TRIPOS>ATOM
      1 C          -9.7213  -16.4867   22.1090 C.2     1  UNL1       -0.0420
      2 C          -9.6689  -17.6727   23.0258 C.2     1  UNL1       -0.0240
      3 C         -11.0592  -17.9350   23.5244 C.ar    1  UNL1       -0.0078
      4 C         -11.6128  -18.9739   24.4540 C.ar    1  UNL1       -0.0006
      5 C         -13.0779  -18.9888   24.7748 C.ar    1  UNL1       -0.0000
      6 C         -13.9895  -17.9648   24.1661 C.ar    1  UNL1       -0.0003
      7 C         -13.4359  -16.9260   23.2365 C.ar    1  UNL1       -0.0040
      8 C         -11.9707  -16.9110   22.9157 C.ar    1  UNL1       -0.0184
      9 C         -11.1439  -16.0160   22.0409 C.3     1  UNL1        0.0480
     10 C          -8.5557  -15.8783   21.3870 C.3     1  UNL1        0.0394
     11 C          -7.7303  -14.8185   22.0545 C.3     1  UNL1        0.0766
     12 F          -5.8473  -15.6177   26.7495 F       1  UNL1       -0.2343
     13 C          -6.3988  -15.3836   25.3744 C.3     1  UNL1        0.1927
     14 C          -5.8181  -15.3395   23.9921 C.3     1  UNL1        0.1093
     15 N          -7.1788  -15.0526   23.4296 N.3     1  UNL1       -0.2677
     16 C          -7.7594  -15.0967   24.8120 C.3     1  UNL1        0.1093
     17 C          -8.4418  -18.4586   23.3817 C.3     1  UNL1        0.0730
     18 C          -7.4435  -18.8123   22.3194 C.ar    1  UNL1        0.0825
     19 C          -6.0003  -18.4422   22.4934 C.ar    1  UNL1        0.1139
     20 N          -5.0020  -18.7958   21.4313 N.ar    1  UNL1       -0.2394
     21 C          -5.4468  -19.5196   20.1951 C.ar    1  UNL1        0.1195
     22 C          -6.8900  -19.8897   20.0211 C.ar    1  UNL1        0.1191
     23 N          -7.8883  -19.5361   21.0832 N.ar    1  UNL1       -0.2446
@<TRIPOS>BOND
     1    12    13    1
     2    13    14    1
     3    14    15    1
     4    15    11    1
     5    11    10    1
     6    10     1    1
     7     1     2    2
     8     2    17    1
     9    17    18    1
    10    18    19   ar
    11    19    20   ar
    12    20    21   ar
    13    21    22   ar
    14    22    23   ar
    15     2     3    1
    16     3     4   ar
    17     4     5   ar
    18     5     6   ar
    19     6     7   ar
    20     7     8   ar
    21     8     9    1
    22    15    16    1
    23    16    13    1
    24     9     1    1
    25    23    18   ar
    26     8     3   ar
@<TRIPOS>MOLECULE
*****
 23 26 0 0 0
SMALL
GASTEIGER

@<TRIPOS>ATOM
      1 C           3.5016   -2.4523   20.1028 C.2     1  UNL1       -0.0420
      2 C           4.0024   -2.4956   21.5161 C.2     1  UNL1       -0.0240
      3 C           3.3264   -1.3968   22.2814 C.ar    1  UNL1       -0.0078
      4 C           3.4286   -0.9608   23.7129 C.ar    1  UNL1       -0.0006
      5 C           2.6121    0.1976   24.2042 C.ar    1  UNL1       -0.0000
      6 C           1.6934    0.9200   23.2639 C.ar    1  UNL1       -0.0003
      7 C           1.5912    0.4840   21.8324 C.ar    1  UNL1       -0.0040
      8 C           2.4077   -0.6744   21.3411 C.ar    1  UNL1       -0.0184
      9 C           2.5160   -1.3267   19.9947 C.3     1  UNL1        0.0480
     10 C           3.9139   -3.3728   18.9926 C.3     1  UNL1        0.0394
     11 C           5.1279   -3.0585   18.1696 C.3     1  UNL1        0.0766
     12 F           5.9683    1.7344   16.5728 F       1  UNL1       -0.2343
     13 C           5.7222    0.3305   17.0405 C.3     1  UNL1        0.1927
     14 C           4.5608   -0.6172   16.9860 C.3     1  UNL1        0.1093
     15 N           5.3741   -1.6547   17.7019 N.3     1  UNL1       -0.2677
     16 C           6.5353   -0.7068   17.7563 C.3     1  UNL1        0.1093
     17 C           5.0036   -3.4671   22.0673 C.3     1  UNL1        0.0730
     18 C           6.4297   -3.4179   21.6047 C.ar    1  UNL1        0.0825
     19 C           7.0688   -2.0995   21.2831 C.ar    1  UNL1        0.1139
     20 N           8.4948   -2.0502   20.8206 N.ar    1  UNL1       -0.2394
     21 C           9.2818   -3.3194   20.6798 C.ar    1  UNL1        0.1195
     22 C           8.6428   -4.6378   21.0014 C.ar    1  UNL1        0.1191
     23 N           7.2167   -4.6871   21.4639 N.ar    1  UNL1       -0.2446
@<TRIPOS>BOND
     1    12    13    1
     2    13    14    1
     3    14    15    1
     4    15    11    1
     5    11    10    1
     6    10     1    1
     7     1     2    2
     8     2    17    1
     9    17    18    1
    10    18    19   ar
    11    19    20   ar
    12    20    21   ar
    13    21    22   ar
    14    22    23   ar
    15     2     3    1
    16     3     4   ar
    17     4     5   ar
    18     5     6   ar
    19     6     7   ar
    20     7     8   ar
    21     8     9    1
    22    15    16    1
    23    16    13    1
    24     9     1    1
    25    23    18   ar
    26     8     3   ar
