@<TRIPOS>MOLECULE
*****
 38 42 0 0 0
SMALL
GASTEIGER

@<TRIPOS>ATOM
      1 C           8.0537   -5.0843   23.8539 C.ar    1  UNL1       -0.0214
      2 C           8.6547   -6.4274   23.5622 C.ar    1  UNL1       -0.0011
      3 C           8.3962   -7.5812   24.4851 C.ar    1  UNL1        0.0366
      4 C           7.5367   -7.3920   25.6998 C.ar    1  UNL1        0.1385
      5 C           6.9357   -6.0490   25.9916 C.ar    1  UNL1        0.0366
      6 C           7.1942   -4.8951   25.0686 C.ar    1  UNL1       -0.0011
      7 C           8.3121   -3.9305   22.9309 C.3     1  UNL1        0.0375
      8 N           5.5458   -2.2811   21.2755 N.am    1  UNL1       -0.2546
      9 C           6.2805   -3.5742   21.0796 C.2     1  UNL1        0.2315
     10 O           6.1737   -4.7195   20.1170 O.2     1  UNL1       -0.2745
     11 C           7.1663   -3.2473   22.2452 C.3     1  UNL1        0.1052
     12 C           6.4316   -1.9543   22.4411 C.3     1  UNL1        0.1249
     13 C           2.1082   -0.2315   19.2183 C.ar    1  UNL1        0.1388
     14 C           3.4462   -0.3100   18.5448 C.ar    1  UNL1        0.0382
     15 C           4.5920   -0.9932   19.2306 C.ar    1  UNL1        0.0180
     16 C           4.3999   -1.5979   20.5897 C.ar    1  UNL1        0.0543
     17 C           3.0619   -1.5194   21.2632 C.ar    1  UNL1        0.0180
     18 C           1.9161   -0.8362   20.5775 C.ar    1  UNL1        0.0382
     19 C           0.8900    1.9497   18.5053 C.3     1  UNL1        0.2525
     20 O           0.9623    0.4517   18.5326 O.3     1  UNL1       -0.4714
     21 C           6.5384   -0.8089   23.4037 C.2     1  UNL1        0.0692
     22 O           5.3073   -0.2760   24.0749 O.co2   1  UNL1       -0.5475
     23 O           7.8763   -0.1965   23.6952 O.co2   1  UNL1       -0.5475
     24 O           7.2783   -8.5459   26.6228 O.3     1  UNL1       -0.4750
     25 C           8.3113   -8.9422   27.6355 C.3     1  UNL1        0.2118
     26 C           8.7802  -10.3650   27.7112 C.3     1  UNL1        0.0960
     27 C           7.8040  -11.4610   28.0207 C.ar    1  UNL1        0.0960
     28 N           6.3091  -11.3538   27.9583 N.ar    1  UNL1       -0.2129
     29 C           5.7325  -12.6832   28.3459 C.ar    1  UNL1        0.2289
     30 O           6.8710  -13.6120   28.6479 O.2     1  UNL1       -0.4392
     31 C           8.1512  -12.8567   28.4469 C.ar    1  UNL1        0.1387
     32 C           9.5358  -13.4013   28.6384 C.3     1  UNL1        0.0738
     33 C           4.2735  -13.0240   28.4188 C.ar    1  UNL1        0.0535
     34 C           3.3960  -12.3511   29.4322 C.ar    1  UNL1        0.0046
     35 C           1.9370  -12.6918   29.5051 C.ar    1  UNL1        0.0002
     36 C           1.3557  -13.7055   28.5646 C.ar    1  UNL1        0.0000
     37 C           2.2332  -14.3784   27.5512 C.ar    1  UNL1        0.0002
     38 C           3.6922  -14.0376   27.4783 C.ar    1  UNL1        0.0046
@<TRIPOS>UNITY_ATOM_ATTR
22 1
charge -1
@<TRIPOS>BOND
     1    19    20    1
     2    20    13    1
     3    13    14   ar
     4    14    15   ar
     5    15    16   ar
     6    16     8    1
     7     8     9   am
     8     9    10    2
     9     9    11    1
    10    11     7    1
    11     7     1    1
    12     1     2   ar
    13     2     3   ar
    14     3     4   ar
    15     4    24    1
    16    24    25    1
    17    25    26    1
    18    26    27    1
    19    27    28   ar
    20    28    29   ar
    21    29    33    1
    22    33    34   ar
    23    34    35   ar
    24    35    36   ar
    25    36    37   ar
    26    37    38   ar
    27    29    30   ar
    28    30    31   ar
    29    31    32    1
    30     4     5   ar
    31     5     6   ar
    32    11    12    1
    33    12    21    1
    34    21    22   ar
    35    21    23   ar
    36    16    17   ar
    37    17    18   ar
    38    18    13   ar
    39    12     8    1
    40     6     1   ar
    41    31    27   ar
    42    38    33   ar
@<TRIPOS>MOLECULE
*****
 38 42 0 0 0
SMALL
GASTEIGER

@<TRIPOS>ATOM
      1 C           2.8699   -0.4004   18.9129 C.ar    1  UNL1       -0.0214
      2 C           2.2948    0.8015   18.2238 C.ar    1  UNL1       -0.0011
      3 C           1.0215    1.4157   18.7253 C.ar    1  UNL1        0.0366
      4 C           0.3233    0.8280   19.9157 C.ar    1  UNL1        0.1385
      5 C           0.8984   -0.3738   20.6047 C.ar    1  UNL1        0.0366
      6 C           2.1717   -0.9881   20.1033 C.ar    1  UNL1       -0.0011
      7 C           4.1432   -1.0146   18.4114 C.3     1  UNL1        0.0375
      8 N           6.1473   -3.0781   20.6114 N.am    1  UNL1       -0.2546
      9 C           6.0995   -1.6157   20.2805 C.2     1  UNL1        0.2315
     10 O           6.8621   -0.4025   20.7238 O.2     1  UNL1       -0.2745
     11 C           4.9733   -1.8693   19.3227 C.3     1  UNL1        0.1052
     12 C           5.0210   -3.3316   19.6535 C.3     1  UNL1        0.1249
     13 C           8.6376   -5.6423   23.3451 C.ar    1  UNL1        0.1388
     14 C           7.4358   -4.9220   23.8808 C.ar    1  UNL1        0.0382
     15 C           6.6057   -4.0673   22.9696 C.ar    1  UNL1        0.0180
     16 C           6.9774   -3.9328   21.5226 C.ar    1  UNL1        0.0543
     17 C           8.1791   -4.6530   20.9869 C.ar    1  UNL1        0.0180
     18 C           9.0092   -5.5078   21.8981 C.ar    1  UNL1        0.0382
     19 C           8.8468   -7.6688   24.9573 C.3     1  UNL1        0.2525
     20 O           9.4677   -6.4970   24.2563 O.3     1  UNL1       -0.4714
     21 C           4.2584   -4.5448   19.2102 C.2     1  UNL1        0.0692
     22 O           2.7788   -4.4577   18.9794 O.co2   1  UNL1       -0.5475
     23 O           4.9754   -5.8451   18.9977 O.co2   1  UNL1       -0.5475
     24 O          -0.9501    1.4422   20.4171 O.3     1  UNL1       -0.4750
     25 C          -0.9801    2.8889   20.8124 C.3     1  UNL1        0.2118
     26 C          -0.1185    3.3764   21.9392 C.3     1  UNL1        0.0960
     27 C          -0.4646    3.0229   23.3553 C.ar    1  UNL1        0.0960
     28 N           0.3528    2.1650   24.2749 N.ar    1  UNL1       -0.2129
     29 C          -0.3664    2.0771   25.5883 C.ar    1  UNL1        0.2289
     30 O          -1.6283    2.8808   25.4804 O.2     1  UNL1       -0.4392
     31 C          -1.6891    3.4653   24.1004 C.ar    1  UNL1        0.1387
     32 C          -2.7823    4.3390   23.5601 C.3     1  UNL1        0.0738
     33 C           0.0953    1.3188   26.7974 C.ar    1  UNL1        0.0535
     34 C           1.5451    0.9677   26.9539 C.ar    1  UNL1        0.0046
     35 C           2.0068    0.2093   28.1630 C.ar    1  UNL1        0.0002
     36 C           1.0186   -0.1979   29.2154 C.ar    1  UNL1        0.0000
     37 C          -0.4312    0.1532   29.0588 C.ar    1  UNL1        0.0002
     38 C          -0.8929    0.9115   27.8498 C.ar    1  UNL1        0.0046
@<TRIPOS>UNITY_ATOM_ATTR
22 1
charge -1
@<TRIPOS>BOND
     1    19    20    1
     2    20    13    1
     3    13    14   ar
     4    14    15   ar
     5    15    16   ar
     6    16     8    1
     7     8     9   am
     8     9    10    2
     9     9    11    1
    10    11     7    1
    11     7     1    1
    12     1     2   ar
    13     2     3   ar
    14     3     4   ar
    15     4    24    1
    16    24    25    1
    17    25    26    1
    18    26    27    1
    19    27    28   ar
    20    28    29   ar
    21    29    33    1
    22    33    34   ar
    23    34    35   ar
    24    35    36   ar
    25    36    37   ar
    26    37    38   ar
    27    29    30   ar
    28    30    31   ar
    29    31    32    1
    30     4     5   ar
    31     5     6   ar
    32    11    12    1
    33    12    21    1
    34    21    22   ar
    35    21    23   ar
    36    16    17   ar
    37    17    18   ar
    38    18    13   ar
    39    12     8    1
    40     6     1   ar
    41    31    27   ar
    42    38    33   ar
@<TRIPOS>MOLECULE
*****
 38 42 0 0 0
SMALL
GASTEIGER

@<TRIPOS>ATOM
      1 C           4.9753   -1.6986   25.8874 C.ar    1  UNL1       -0.0214
      2 C           6.1618   -2.6094   26.0000 C.ar    1  UNL1       -0.0011
      3 C           6.5348   -3.5006   24.8526 C.ar    1  UNL1        0.0366
      4 C           5.7212   -3.4811   23.5925 C.ar    1  UNL1        0.1385
      5 C           4.5347   -2.5704   23.4799 C.ar    1  UNL1        0.0366
      6 C           4.1617   -1.6791   24.6273 C.ar    1  UNL1       -0.0011
      7 C           4.6023   -0.8074   27.0348 C.3     1  UNL1        0.0375
      8 N           1.7141    1.3620   26.7781 N.am    1  UNL1       -0.2546
      9 C           2.9580    1.1514   25.9665 C.2     1  UNL1        0.2315
     10 O           3.5207    1.7521   24.7125 O.2     1  UNL1       -0.2745
     11 C           3.4060    0.0912   26.9284 C.3     1  UNL1        0.1052
     12 C           2.1622    0.3018   27.7400 C.3     1  UNL1        0.1249
     13 C          -1.8749    4.0578   26.4591 C.ar    1  UNL1        0.1388
     14 C          -1.7595    2.8544   25.5710 C.ar    1  UNL1        0.0382
     15 C          -0.5631    1.9558   25.6774 C.ar    1  UNL1        0.0180
     16 C           0.5178    2.2606   26.6717 C.ar    1  UNL1        0.0543
     17 C           0.4023    3.4639   27.5597 C.ar    1  UNL1        0.0180
     18 C          -0.7940    4.3625   27.4534 C.ar    1  UNL1        0.0382
     19 C          -4.3850    4.5284   26.9367 C.3     1  UNL1        0.2525
     20 O          -3.0713    4.9563   26.3527 O.3     1  UNL1       -0.4714
     21 C           1.5995   -0.2990   28.9940 C.2     1  UNL1        0.0692
     22 O           0.1140   -0.3973   29.1774 O.co2   1  UNL1       -0.5475
     23 O           2.5223   -0.8013   30.0645 O.co2   1  UNL1       -0.5475
     24 O           6.0942   -4.3724   22.4451 O.3     1  UNL1       -0.4750
     25 C           7.2259   -3.9920   21.5370 C.3     1  UNL1        0.2118
     26 C           6.9394   -3.3900   20.1934 C.3     1  UNL1        0.0960
     27 C           5.5350   -3.0139   19.8240 C.ar    1  UNL1        0.0960
     28 N           4.9098   -1.6616   19.9974 N.ar    1  UNL1       -0.2129
     29 C           3.4977   -1.7361   19.4969 C.ar    1  UNL1        0.2289
     30 O           3.2503   -3.1346   19.0142 O.2     1  UNL1       -0.4392
     31 C           4.5094   -3.9244   19.2164 C.ar    1  UNL1        0.1387
     32 C           4.7080   -5.3706   18.8714 C.3     1  UNL1        0.0738
     33 C           2.5070   -0.6099   19.4818 C.ar    1  UNL1        0.0535
     34 C           2.7419    0.5837   18.6043 C.ar    1  UNL1        0.0046
     35 C           1.7512    1.7099   18.5892 C.ar    1  UNL1        0.0002
     36 C           0.5257    1.6424   19.4515 C.ar    1  UNL1        0.0000
     37 C           0.2909    0.4488   20.3290 C.ar    1  UNL1        0.0002
     38 C           1.2816   -0.6774   20.3441 C.ar    1  UNL1        0.0046
@<TRIPOS>UNITY_ATOM_ATTR
22 1
charge -1
@<TRIPOS>BOND
     1    19    20    1
     2    20    13    1
     3    13    14   ar
     4    14    15   ar
     5    15    16   ar
     6    16     8    1
     7     8     9   am
     8     9    10    2
     9     9    11    1
    10    11     7    1
    11     7     1    1
    12     1     2   ar
    13     2     3   ar
    14     3     4   ar
    15     4    24    1
    16    24    25    1
    17    25    26    1
    18    26    27    1
    19    27    28   ar
    20    28    29   ar
    21    29    33    1
    22    33    34   ar
    23    34    35   ar
    24    35    36   ar
    25    36    37   ar
    26    37    38   ar
    27    29    30   ar
    28    30    31   ar
    29    31    32    1
    30     4     5   ar
    31     5     6   ar
    32    11    12    1
    33    12    21    1
    34    21    22   ar
    35    21    23   ar
    36    16    17   ar
    37    17    18   ar
    38    18    13   ar
    39    12     8    1
    40     6     1   ar
    41    31    27   ar
    42    38    33   ar
@<TRIPOS>MOLECULE
*****
 38 42 0 0 0
SMALL
GASTEIGER

@<TRIPOS>ATOM
      1 C           2.4149   -0.2078   19.0711 C.ar    1  UNL1       -0.0214
      2 C           2.0494    1.0939   18.4214 C.ar    1  UNL1       -0.0011
      3 C           0.9161    1.9118   18.9660 C.ar    1  UNL1        0.0366
      4 C           0.1482    1.4280   20.1603 C.ar    1  UNL1        0.1385
      5 C           0.5136    0.1263   20.8099 C.ar    1  UNL1        0.0366
      6 C           1.6469   -0.6916   20.2653 C.ar    1  UNL1       -0.0011
      7 C           3.5482   -1.0257   18.5265 C.3     1  UNL1        0.0375
      8 N           5.6475   -2.9353   20.7760 N.am    1  UNL1       -0.2546
      9 C           5.4386   -1.4751   20.5029 C.2     1  UNL1        0.2315
     10 O           6.0126   -0.2013   21.0485 O.2     1  UNL1       -0.2745
     11 C           4.4178   -1.8167   19.4583 C.3     1  UNL1        0.1052
     12 C           4.6267   -3.2767   19.7313 C.3     1  UNL1        0.1249
     13 C           8.2563   -5.3081   23.5713 C.ar    1  UNL1        0.1388
     14 C           6.9904   -4.6821   24.0768 C.ar    1  UNL1        0.0382
     15 C           6.1208   -3.8911   23.1450 C.ar    1  UNL1        0.0180
     16 C           6.5171   -3.7262   21.7078 C.ar    1  UNL1        0.0543
     17 C           7.7830   -4.3522   21.2023 C.ar    1  UNL1        0.0180
     18 C           8.6526   -5.1432   22.1341 C.ar    1  UNL1        0.0382
     19 C           8.8193   -7.5427   24.7712 C.3     1  UNL1        0.2525
     20 O           9.1259   -6.0991   24.5031 O.3     1  UNL1       -0.4714
     21 C           4.0526   -4.5506   19.1857 C.2     1  UNL1        0.0692
     22 O           2.5783   -4.6608   18.9321 O.co2   1  UNL1       -0.5475
     23 O           4.9529   -5.7143   18.8936 O.co2   1  UNL1       -0.5475
     24 O          -0.9852    2.2460   20.7048 O.3     1  UNL1       -0.4750
     25 C          -1.4590    3.4596   19.9616 C.3     1  UNL1        0.2118
     26 C          -2.9020    3.5841   19.5713 C.3     1  UNL1        0.0960
     27 C          -3.9488    3.7925   20.6252 C.ar    1  UNL1        0.0960
     28 N          -3.6984    4.1838   22.0514 N.ar    1  UNL1       -0.2129
     29 C          -5.0246    4.2794   22.7456 C.ar    1  UNL1        0.2289
     30 O          -6.0947    3.9471   21.7484 O.2     1  UNL1       -0.4392
     31 C          -5.4299    3.6462   20.4379 C.ar    1  UNL1        0.1387
     32 C          -6.1241    3.2657   19.1638 C.3     1  UNL1        0.0738
     33 C          -5.2425    4.6433   24.1844 C.ar    1  UNL1        0.0535
     34 C          -4.3504    4.0714   25.2460 C.ar    1  UNL1        0.0046
     35 C          -4.5683    4.4354   26.6848 C.ar    1  UNL1        0.0002
     36 C          -5.6783    5.3711   27.0619 C.ar    1  UNL1        0.0000
     37 C          -6.5704    5.9430   26.0004 C.ar    1  UNL1        0.0002
     38 C          -6.3525    5.5790   24.5616 C.ar    1  UNL1        0.0046
@<TRIPOS>UNITY_ATOM_ATTR
22 1
charge -1
@<TRIPOS>BOND
     1    19    20    1
     2    20    13    1
     3    13    14   ar
     4    14    15   ar
     5    15    16   ar
     6    16     8    1
     7     8     9   am
     8     9    10    2
     9     9    11    1
    10    11     7    1
    11     7     1    1
    12     1     2   ar
    13     2     3   ar
    14     3     4   ar
    15     4    24    1
    16    24    25    1
    17    25    26    1
    18    26    27    1
    19    27    28   ar
    20    28    29   ar
    21    29    33    1
    22    33    34   ar
    23    34    35   ar
    24    35    36   ar
    25    36    37   ar
    26    37    38   ar
    27    29    30   ar
    28    30    31   ar
    29    31    32    1
    30     4     5   ar
    31     5     6   ar
    32    11    12    1
    33    12    21    1
    34    21    22   ar
    35    21    23   ar
    36    16    17   ar
    37    17    18   ar
    38    18    13   ar
    39    12     8    1
    40     6     1   ar
    41    31    27   ar
    42    38    33   ar
@<TRIPOS>MOLECULE
*****
 38 42 0 0 0
SMALL
GASTEIGER

@<TRIPOS>ATOM
      1 C           7.8412   -5.7767   27.1866 C.ar    1  UNL1       -0.0214
      2 C           9.2209   -5.7416   26.5990 C.ar    1  UNL1       -0.0011
      3 C           9.4183   -5.3207   25.1729 C.ar    1  UNL1        0.0366
      4 C           8.2360   -4.9349   24.3343 C.ar    1  UNL1        0.1385
      5 C           6.8563   -4.9699   24.9218 C.ar    1  UNL1        0.0366
      6 C           6.6588   -5.3908   26.3480 C.ar    1  UNL1       -0.0011
      7 C           7.6438   -6.1976   28.6127 C.3     1  UNL1        0.0375
      8 N           6.7682   -3.7378   31.1220 N.am    1  UNL1       -0.2546
      9 C           6.8995   -5.2319   31.1017 C.2     1  UNL1        0.2315
     10 O           6.7225   -6.3260   32.1125 O.2     1  UNL1       -0.2745
     11 C           7.2811   -5.1787   29.6521 C.3     1  UNL1        0.1052
     12 C           7.1498   -3.6846   29.6723 C.3     1  UNL1        0.1249
     13 C           5.6802   -0.6811   34.2401 C.ar    1  UNL1        0.1388
     14 C           4.6440   -1.6429   33.7391 C.ar    1  UNL1        0.0382
     15 C           5.0066   -2.6618   32.6997 C.ar    1  UNL1        0.0180
     16 C           6.4055   -2.7189   32.1614 C.ar    1  UNL1        0.0543
     17 C           7.4417   -1.7571   32.6624 C.ar    1  UNL1        0.0180
     18 C           7.0790   -0.7382   33.7018 C.ar    1  UNL1        0.0382
     19 C           4.6712   -0.0961   36.5617 C.3     1  UNL1        0.2525
     20 O           5.3175    0.3378   35.2795 O.3     1  UNL1       -0.4714
     21 C           7.3268   -2.5905   28.6615 C.2     1  UNL1        0.0692
     22 O           6.1253   -1.9263   28.0571 O.co2   1  UNL1       -0.5475
     23 O           8.7053   -2.1607   28.2552 O.co2   1  UNL1       -0.5475
     24 O           8.4334   -4.5139   22.9081 O.3     1  UNL1       -0.4750
     25 C           7.4646   -3.5666   22.2647 C.3     1  UNL1        0.2118
     26 C           6.7970   -3.9385   20.9741 C.3     1  UNL1        0.0960
     27 C           5.4514   -3.3690   20.6343 C.ar    1  UNL1        0.0960
     28 N           4.8177   -2.1660   21.2677 N.ar    1  UNL1       -0.2129
     29 C           3.4781   -1.9561   20.6264 C.ar    1  UNL1        0.2289
     30 O           3.2839   -3.0293   19.5967 O.2     1  UNL1       -0.4392
     31 C           4.5035   -3.9026   19.6015 C.ar    1  UNL1        0.1387
     32 C           4.7346   -5.0994   18.7272 C.3     1  UNL1        0.0738
     33 C           2.5037   -0.8645   20.9568 C.ar    1  UNL1        0.0535
     34 C           1.2062   -0.7663   20.2107 C.ar    1  UNL1        0.0046
     35 C           0.2319    0.3252   20.5411 C.ar    1  UNL1        0.0002
     36 C           0.5551    1.3186   21.6176 C.ar    1  UNL1        0.0000
     37 C           1.8526    1.2204   22.3637 C.ar    1  UNL1        0.0002
     38 C           2.8270    0.1288   22.0333 C.ar    1  UNL1        0.0046
@<TRIPOS>UNITY_ATOM_ATTR
22 1
charge -1
@<TRIPOS>BOND
     1    19    20    1
     2    20    13    1
     3    13    14   ar
     4    14    15   ar
     5    15    16   ar
     6    16     8    1
     7     8     9   am
     8     9    10    2
     9     9    11    1
    10    11     7    1
    11     7     1    1
    12     1     2   ar
    13     2     3   ar
    14     3     4   ar
    15     4    24    1
    16    24    25    1
    17    25    26    1
    18    26    27    1
    19    27    28   ar
    20    28    29   ar
    21    29    33    1
    22    33    34   ar
    23    34    35   ar
    24    35    36   ar
    25    36    37   ar
    26    37    38   ar
    27    29    30   ar
    28    30    31   ar
    29    31    32    1
    30     4     5   ar
    31     5     6   ar
    32    11    12    1
    33    12    21    1
    34    21    22   ar
    35    21    23   ar
    36    16    17   ar
    37    17    18   ar
    38    18    13   ar
    39    12     8    1
    40     6     1   ar
    41    31    27   ar
    42    38    33   ar
@<TRIPOS>MOLECULE
*****
 38 42 0 0 0
SMALL
GASTEIGER

@<TRIPOS>ATOM
      1 C           7.7786   -2.1355   31.9151 C.ar    1  UNL1       -0.0214
      2 C           7.3355   -3.5562   32.1040 C.ar    1  UNL1       -0.0011
      3 C           6.9646   -4.3907   30.9141 C.ar    1  UNL1        0.0366
      4 C           7.0368   -3.8046   29.5352 C.ar    1  UNL1        0.1385
      5 C           7.4799   -2.3841   29.3462 C.ar    1  UNL1        0.0366
      6 C           7.8508   -1.5495   30.5362 C.ar    1  UNL1       -0.0011
      7 C           8.1495   -1.3010   33.1050 C.3     1  UNL1        0.0375
      8 N           5.5622    0.2770   35.0873 N.am    1  UNL1       -0.2546
      9 C           7.0572    0.3797   35.0190 C.2     1  UNL1        0.2315
     10 O           8.0996    1.1787   35.7436 O.2     1  UNL1       -0.2745
     11 C           7.0778   -0.6474   33.9261 C.3     1  UNL1        0.1052
     12 C           5.5829   -0.7502   33.9943 C.3     1  UNL1        0.1249
     13 C           2.3470    2.2379   37.5505 C.ar    1  UNL1        0.1388
     14 C           3.2334    1.1962   38.1665 C.ar    1  UNL1        0.0382
     15 C           4.3051    0.5426   37.3454 C.ar    1  UNL1        0.0180
     16 C           4.4905    0.9306   35.9084 C.ar    1  UNL1        0.0543
     17 C           3.6041    1.9722   35.2924 C.ar    1  UNL1        0.0180
     18 C           2.5324    2.6258   36.1135 C.ar    1  UNL1        0.0382
     19 C           0.4754    2.0779   39.3453 C.3     1  UNL1        0.2525
     20 O           1.2753    2.8915   38.3716 O.3     1  UNL1       -0.4714
     21 C           4.5405   -1.5492   33.2697 C.2     1  UNL1        0.0692
     22 O           4.2996   -1.3170   31.8075 O.co2   1  UNL1       -0.5475
     23 O           3.7390   -2.5805   34.0073 O.co2   1  UNL1       -0.5475
     24 O           6.6659   -4.6392   28.3452 O.3     1  UNL1       -0.4750
     25 C           6.6086   -4.0173   26.9814 C.3     1  UNL1        0.2118
     26 C           7.2731   -4.6947   25.8198 C.3     1  UNL1        0.0960
     27 C           6.8113   -4.4102   24.4212 C.ar    1  UNL1        0.0960
     28 N           5.6407   -3.5551   24.0361 N.ar    1  UNL1       -0.2129
     29 C           5.5449   -3.5473   22.5392 C.ar    1  UNL1        0.2289
     30 O           6.6562   -4.3978   21.9992 O.2     1  UNL1       -0.4392
     31 C           7.4389   -4.9311   23.1623 C.ar    1  UNL1        0.1387
     32 C           8.6387   -5.8278   23.0810 C.3     1  UNL1        0.0738
     33 C           4.5180   -2.8174   21.7251 C.ar    1  UNL1        0.0535
     34 C           3.7709   -1.6617   22.3220 C.ar    1  UNL1        0.0046
     35 C           2.7440   -0.9317   21.5079 C.ar    1  UNL1        0.0002
     36 C           2.4642   -1.3575   20.0971 C.ar    1  UNL1        0.0000
     37 C           3.2112   -2.5131   19.5003 C.ar    1  UNL1        0.0002
     38 C           4.2382   -3.2431   20.3143 C.ar    1  UNL1        0.0046
@<TRIPOS>UNITY_ATOM_ATTR
22 1
charge -1
@<TRIPOS>BOND
     1    19    20    1
     2    20    13    1
     3    13    14   ar
     4    14    15   ar
     5    15    16   ar
     6    16     8    1
     7     8     9   am
     8     9    10    2
     9     9    11    1
    10    11     7    1
    11     7     1    1
    12     1     2   ar
    13     2     3   ar
    14     3     4   ar
    15     4    24    1
    16    24    25    1
    17    25    26    1
    18    26    27    1
    19    27    28   ar
    20    28    29   ar
    21    29    33    1
    22    33    34   ar
    23    34    35   ar
    24    35    36   ar
    25    36    37   ar
    26    37    38   ar
    27    29    30   ar
    28    30    31   ar
    29    31    32    1
    30     4     5   ar
    31     5     6   ar
    32    11    12    1
    33    12    21    1
    34    21    22   ar
    35    21    23   ar
    36    16    17   ar
    37    17    18   ar
    38    18    13   ar
    39    12     8    1
    40     6     1   ar
    41    31    27   ar
    42    38    33   ar
@<TRIPOS>MOLECULE
*****
 38 42 0 0 0
SMALL
GASTEIGER

@<TRIPOS>ATOM
      1 C           2.7228   -0.3511   18.9036 C.ar    1  UNL1       -0.0214
      2 C           1.9943   -0.9238   20.0833 C.ar    1  UNL1       -0.0011
      3 C           0.7772   -0.2317   20.6214 C.ar    1  UNL1        0.0366
      4 C           0.2885    1.0331   19.9799 C.ar    1  UNL1        0.1385
      5 C           1.0168    1.6058   18.8003 C.ar    1  UNL1        0.0366
      6 C           2.2340    0.9137   18.2621 C.ar    1  UNL1       -0.0011
      7 C           3.9399   -1.0432   18.3655 C.3     1  UNL1        0.0375
      8 N           6.0230   -3.0196   20.5719 N.am    1  UNL1       -0.2546
      9 C           5.9120   -1.5603   20.2430 C.2     1  UNL1        0.2315
     10 O           6.6180   -0.3152   20.6919 O.2     1  UNL1       -0.2745
     11 C           4.8028   -1.8618   19.2794 C.3     1  UNL1        0.1052
     12 C           4.9137   -3.3211   19.6082 C.3     1  UNL1        0.1249
     13 C           8.6115   -5.4757   23.3137 C.ar    1  UNL1        0.1388
     14 C           8.9855   -5.3195   21.8695 C.ar    1  UNL1        0.0382
     15 C           8.1227   -4.5009   20.9556 C.ar    1  UNL1        0.0180
     16 C           6.8858   -3.8383   21.4858 C.ar    1  UNL1        0.0543
     17 C           6.5119   -3.9944   22.9300 C.ar    1  UNL1        0.0180
     18 C           7.3747   -4.8131   23.8439 C.ar    1  UNL1        0.0382
     19 C           9.1222   -7.7248   24.5097 C.3     1  UNL1        0.2525
     20 O           9.4744   -6.2943   24.2276 O.3     1  UNL1       -0.4714
     21 C           4.2077   -4.5662   19.1594 C.2     1  UNL1        0.0692
     22 O           4.9909   -5.8173   18.8918 O.co2   1  UNL1       -0.5475
     23 O           2.7188   -4.5602   18.9782 O.co2   1  UNL1       -0.5475
     24 O          -0.9287    1.7251   20.5181 O.3     1  UNL1       -0.4750
     25 C          -0.7855    2.7843   21.5705 C.3     1  UNL1        0.2118
     26 C           0.5437    3.0150   22.2262 C.3     1  UNL1        0.0960
     27 C           0.9081    2.2589   23.4694 C.ar    1  UNL1        0.0960
     28 N           2.1283    1.4069   23.6574 N.ar    1  UNL1       -0.2129
     29 C           2.0906    0.8435   25.0470 C.ar    1  UNL1        0.2289
     30 O           0.8471    1.3472   25.7178 O.2     1  UNL1       -0.4392
     31 C           0.1163    2.2219   24.7429 C.ar    1  UNL1        0.1387
     32 C          -1.1790    2.9347   24.9967 C.3     1  UNL1        0.0738
     33 C           3.1163   -0.0643   25.6585 C.ar    1  UNL1        0.0535
     34 C           3.9664   -0.9342   24.7807 C.ar    1  UNL1        0.0046
     35 C           4.9921   -1.8420   25.3922 C.ar    1  UNL1        0.0002
     36 C           5.1677   -1.8798   26.8813 C.ar    1  UNL1        0.0000
     37 C           4.3176   -1.0099   27.7591 C.ar    1  UNL1        0.0002
     38 C           3.2919   -0.1021   27.1477 C.ar    1  UNL1        0.0046
@<TRIPOS>UNITY_ATOM_ATTR
22 1
charge -1
@<TRIPOS>BOND
     1    19    20    1
     2    20    13    1
     3    13    14   ar
     4    14    15   ar
     5    15    16   ar
     6    16     8    1
     7     8     9   am
     8     9    10    2
     9     9    11    1
    10    11     7    1
    11     7     1    1
    12     1     2   ar
    13     2     3   ar
    14     3     4   ar
    15     4    24    1
    16    24    25    1
    17    25    26    1
    18    26    27    1
    19    27    28   ar
    20    28    29   ar
    21    29    33    1
    22    33    34   ar
    23    34    35   ar
    24    35    36   ar
    25    36    37   ar
    26    37    38   ar
    27    29    30   ar
    28    30    31   ar
    29    31    32    1
    30     4     5   ar
    31     5     6   ar
    32    11    12    1
    33    12    21    1
    34    21    22   ar
    35    21    23   ar
    36    16    17   ar
    37    17    18   ar
    38    18    13   ar
    39    12     8    1
    40     6     1   ar
    41    31    27   ar
    42    38    33   ar
@<TRIPOS>MOLECULE
*****
 38 42 0 0 0
SMALL
GASTEIGER

@<TRIPOS>ATOM
      1 C           5.1045   -3.6625   21.3044 C.ar    1  UNL1       -0.0214
      2 C           4.9148   -3.6100   22.7915 C.ar    1  UNL1       -0.0011
      3 C           6.0799   -3.8506   23.7051 C.ar    1  UNL1        0.0366
      4 C           7.4346   -4.1436   23.1318 C.ar    1  UNL1        0.1385
      5 C           7.6244   -4.1962   21.6448 C.ar    1  UNL1        0.0366
      6 C           6.4593   -3.9556   20.7310 C.ar    1  UNL1       -0.0011
      7 C           3.9395   -3.4220   20.3907 C.3     1  UNL1        0.0375
      8 N           3.0822   -0.0460   19.4000 N.am    1  UNL1       -0.2546
      9 C           2.8546   -0.8823   20.6244 C.2     1  UNL1        0.2315
     10 O           2.1775   -0.6666   21.9454 O.2     1  UNL1       -0.2745
     11 C           3.5844   -2.0236   19.9804 C.3     1  UNL1        0.1052
     12 C           3.8121   -1.1874   18.7561 C.3     1  UNL1        0.1249
     13 C           2.0169    4.1492   18.1689 C.ar    1  UNL1        0.1388
     14 C           0.9436    3.1089   18.2943 C.ar    1  UNL1        0.0382
     15 C           1.2987    1.7105   18.7047 C.ar    1  UNL1        0.0180
     16 C           2.7271    1.3524   18.9897 C.ar    1  UNL1        0.0543
     17 C           3.8005    2.3926   18.8643 C.ar    1  UNL1        0.0180
     18 C           3.4454    3.7910   18.4539 C.ar    1  UNL1        0.0382
     19 C           0.2247    5.9751   17.7176 C.3     1  UNL1        0.2525
     20 O           1.6618    5.5476   17.7586 O.3     1  UNL1       -0.4714
     21 C           4.4891   -1.4031   17.4351 C.2     1  UNL1        0.0692
     22 O           3.7749   -1.0601   16.1614 O.co2   1  UNL1       -0.5475
     23 O           5.8804   -1.9619   17.3877 O.co2   1  UNL1       -0.5475
     24 O           8.5997   -4.3842   24.0455 O.3     1  UNL1       -0.4750
     25 C           9.0583   -5.7851   24.3232 C.3     1  UNL1        0.2118
     26 C           8.1815   -6.7208   25.1014 C.3     1  UNL1        0.0960
     27 C           7.9777   -6.5088   26.5724 C.ar    1  UNL1        0.0960
     28 N           7.4652   -5.2567   27.2201 N.ar    1  UNL1       -0.2129
     29 C           7.4214   -5.4858   28.7018 C.ar    1  UNL1        0.2289
     30 O           7.9067   -6.8796   28.9698 O.2     1  UNL1       -0.4392
     31 C           8.2505   -7.5119   27.6538 C.ar    1  UNL1        0.1387
     32 C           8.7751   -8.9030   27.4542 C.3     1  UNL1        0.0738
     33 C           6.9712   -4.4951   29.7342 C.ar    1  UNL1        0.0535
     34 C           6.5233   -3.1264   29.3151 C.ar    1  UNL1        0.0046
     35 C           6.0732   -2.1357   30.3475 C.ar    1  UNL1        0.0002
     36 C           6.0709   -2.5138   31.7990 C.ar    1  UNL1        0.0000
     37 C           6.5188   -3.8825   32.2182 C.ar    1  UNL1        0.0002
     38 C           6.9690   -4.8732   31.1858 C.ar    1  UNL1        0.0046
@<TRIPOS>UNITY_ATOM_ATTR
22 1
charge -1
@<TRIPOS>BOND
     1    19    20    1
     2    20    13    1
     3    13    14   ar
     4    14    15   ar
     5    15    16   ar
     6    16     8    1
     7     8     9   am
     8     9    10    2
     9     9    11    1
    10    11     7    1
    11     7     1    1
    12     1     2   ar
    13     2     3   ar
    14     3     4   ar
    15     4    24    1
    16    24    25    1
    17    25    26    1
    18    26    27    1
    19    27    28   ar
    20    28    29   ar
    21    29    33    1
    22    33    34   ar
    23    34    35   ar
    24    35    36   ar
    25    36    37   ar
    26    37    38   ar
    27    29    30   ar
    28    30    31   ar
    29    31    32    1
    30     4     5   ar
    31     5     6   ar
    32    11    12    1
    33    12    21    1
    34    21    22   ar
    35    21    23   ar
    36    16    17   ar
    37    17    18   ar
    38    18    13   ar
    39    12     8    1
    40     6     1   ar
    41    31    27   ar
    42    38    33   ar
@<TRIPOS>MOLECULE
*****
 38 42 0 0 0
SMALL
GASTEIGER

@<TRIPOS>ATOM
      1 C           3.1969    2.2467   18.5996 C.ar    1  UNL1       -0.0214
      2 C           4.6884    2.2797   18.4428 C.ar    1  UNL1       -0.0011
      3 C           5.4173    1.0667   17.9458 C.ar    1  UNL1        0.0366
      4 C           4.6550   -0.1794   17.6054 C.ar    1  UNL1        0.1385
      5 C           3.1636   -0.2126   17.7621 C.ar    1  UNL1        0.0366
      6 C           2.4345    1.0005   18.2592 C.ar    1  UNL1       -0.0011
      7 C           2.4679    3.4597   19.0966 C.3     1  UNL1        0.0375
      8 N          -1.1327    3.6681   18.7713 N.am    1  UNL1       -0.2546
      9 C           0.0347    4.2443   18.0261 C.2     1  UNL1        0.2315
     10 O           0.1943    5.1454   16.8376 O.2     1  UNL1       -0.2745
     11 C           0.9765    3.5460   18.9619 C.3     1  UNL1        0.1052
     12 C          -0.1909    2.9699   19.7070 C.3     1  UNL1        0.1249
     13 C          -5.6070    3.9272   18.3670 C.ar    1  UNL1        0.1388
     14 C          -4.7360    4.0462   17.1516 C.ar    1  UNL1        0.0382
     15 C          -3.2446    3.9598   17.2864 C.ar    1  UNL1        0.0180
     16 C          -2.6242    3.7545   18.6365 C.ar    1  UNL1        0.0543
     17 C          -3.4952    3.6355   19.8519 C.ar    1  UNL1        0.0180
     18 C          -4.9866    3.7218   19.7171 C.ar    1  UNL1        0.0382
     19 C          -7.8415    5.1636   18.8447 C.3     1  UNL1        0.2525
     20 O          -7.0985    4.0135   18.2322 O.3     1  UNL1       -0.4714
     21 C          -0.3505    2.0687   20.8955 C.2     1  UNL1        0.0692
     22 O          -0.1681    0.5876   20.7435 O.co2   1  UNL1       -0.5475
     23 O          -0.6925    2.6487   22.2359 O.co2   1  UNL1       -0.5475
     24 O           5.3840   -1.3925   17.1084 O.3     1  UNL1       -0.4750
     25 C           6.5714   -1.9148   17.8614 C.3     1  UNL1        0.2118
     26 C           6.3927   -2.5006   19.2307 C.3     1  UNL1        0.0960
     27 C           5.2028   -2.1188   20.0603 C.ar    1  UNL1        0.0960
     28 N           5.1141   -0.9414   20.9854 N.ar    1  UNL1       -0.2129
     29 C           3.7491   -0.9423   21.6074 C.ar    1  UNL1        0.2289
     30 O           2.9942   -2.1203   21.0666 O.2     1  UNL1       -0.4392
     31 C           3.8926   -2.8474   20.1105 C.ar    1  UNL1        0.1387
     32 C           3.5423   -4.0858   19.3399 C.3     1  UNL1        0.0738
     33 C           3.2302    0.0590   22.5964 C.ar    1  UNL1        0.0535
     34 C           3.1448    1.5087   22.2212 C.ar    1  UNL1        0.0046
     35 C           2.6258    2.5100   23.2102 C.ar    1  UNL1        0.0002
     36 C           2.1923    2.0615   24.5744 C.ar    1  UNL1        0.0000
     37 C           2.2777    0.6117   24.9495 C.ar    1  UNL1        0.0002
     38 C           2.7967   -0.3896   23.9605 C.ar    1  UNL1        0.0046
@<TRIPOS>UNITY_ATOM_ATTR
22 1
charge -1
@<TRIPOS>BOND
     1    19    20    1
     2    20    13    1
     3    13    14   ar
     4    14    15   ar
     5    15    16   ar
     6    16     8    1
     7     8     9   am
     8     9    10    2
     9     9    11    1
    10    11     7    1
    11     7     1    1
    12     1     2   ar
    13     2     3   ar
    14     3     4   ar
    15     4    24    1
    16    24    25    1
    17    25    26    1
    18    26    27    1
    19    27    28   ar
    20    28    29   ar
    21    29    33    1
    22    33    34   ar
    23    34    35   ar
    24    35    36   ar
    25    36    37   ar
    26    37    38   ar
    27    29    30   ar
    28    30    31   ar
    29    31    32    1
    30     4     5   ar
    31     5     6   ar
    32    11    12    1
    33    12    21    1
    34    21    22   ar
    35    21    23   ar
    36    16    17   ar
    37    17    18   ar
    38    18    13   ar
    39    12     8    1
    40     6     1   ar
    41    31    27   ar
    42    38    33   ar
