@<TRIPOS>MOLECULE
*****
 48 53 0 0 0
SMALL
GASTEIGER

@<TRIPOS>ATOM
      1 N           0.8172    3.1044   26.3610 N.am    1  UNL1       -0.2964
      2 C          -0.4789    2.3553   26.4565 C.2     1  UNL1        0.2461
      3 O          -0.5264    1.0235   27.1451 O.2     1  UNL1       -0.2701
      4 H           0.8484    3.9784   25.9091 H       1  UNL1        0.1501
      5 C          -1.7274    2.9380   25.8635 C.ar    1  UNL1        0.0548
      6 C          -2.8605    3.3494   26.7562 C.ar    1  UNL1        0.0046
      7 C          -4.1090    3.9321   26.1631 C.ar    1  UNL1        0.0013
      8 C          -4.2244    4.1034   24.6774 C.ar    1  UNL1        0.0133
      9 C          -5.3235    4.6446   23.8119 C.ar    1  UNL1       -0.0023
     10 C          -4.8697    4.5677   22.3843 C.ar    1  UNL1        0.0922
     11 N          -3.4901    3.9790   22.3675 N.ar    1  UNL1       -0.3230
     12 C          -2.6558    3.7223   21.1477 C.3     1  UNL1        0.1305
     13 C          -3.0913    3.6921   23.7848 C.ar    1  UNL1        0.0598
     14 C          -1.8428    3.1094   24.3778 C.ar    1  UNL1        0.0217
     15 C          -5.6571    5.0031   21.1841 C.ar    1  UNL1        0.1781
     16 N          -6.2143    3.9786   20.2407 N.ar    1  UNL1       -0.2229
     17 C          -7.0017    4.4139   19.0405 C.ar    1  UNL1        0.1135
     18 C          -7.2320    5.8736   18.7837 C.ar    1  UNL1        0.0959
     19 CL         -8.0195    6.3090   17.5835 Cl      1  UNL1       -0.0790
     20 C          -6.6748    6.8981   19.7271 C.ar    1  UNL1        0.1135
     21 N          -5.8874    6.4629   20.9273 N.ar    1  UNL1       -0.2229
     22 C          -6.6445    5.1703   24.2900 C.3     1  UNL1        0.0239
     23 C          -7.9957    4.6740   23.8684 C.3     1  UNL1        0.0044
     24 C          -9.0325    5.4816   24.5915 C.3     1  UNL1        0.0003
     25 C          -8.3220    6.4770   25.4600 C.3     1  UNL1        0.0003
     26 C          -6.8461    6.2847   25.2737 C.3     1  UNL1        0.0044
     27 C           2.0657    2.5216   26.9540 C.3     1  UNL1        0.1260
     28 C           1.7002    3.0979   28.2897 C.3     1  UNL1        0.0270
     29 C           2.9487    2.5152   28.8828 C.3     1  UNL1        0.0043
     30 C           3.3142    1.9390   27.5470 C.3     1  UNL1        0.0270
     31 N           1.9565    0.5743   25.2377 N.am    1  UNL1       -0.2826
     32 C           2.4312    1.9453   25.6183 C.2     1  UNL1        0.2419
     33 O           3.2715    2.7401   24.6631 O.2     1  UNL1       -0.2731
     34 H           1.4051    0.0526   25.8646 H       1  UNL1        0.1549
     35 C           1.9061   -0.1947   21.3446 C.ar    1  UNL1        0.1397
     36 C           1.5406    0.3816   22.6803 C.ar    1  UNL1        0.0515
     37 C           2.3221   -0.0020   23.9019 C.ar    1  UNL1        0.0534
     38 C           3.4691   -0.9618   23.7876 C.ar    1  UNL1        0.0149
     39 C           3.8347   -1.5381   22.4518 C.ar    1  UNL1        0.0043
     40 C           3.0532   -1.1545   21.2303 C.ar    1  UNL1        0.0341
     41 C           3.4187   -1.7308   19.8945 C.2     1  UNL1        0.0042
     42 C           4.1752   -0.8999   18.9009 C.2     1  UNL1        0.0152
     43 C           4.5407   -1.4761   17.5651 C.2     1  UNL1        0.0729
     44 O           5.6106   -2.5230   17.4673 O.co2   1  UNL1       -0.5446
     45 O           3.8365   -1.0055   16.3272 O.co2   1  UNL1       -0.5446
     46 O           1.1246    0.1889   20.1231 O.3     1  UNL1       -0.4754
     47 C           0.4328    2.4065   18.9595 C.3     1  UNL1        0.0512
     48 C           0.3208    1.4553   20.1140 C.3     1  UNL1        0.2055
@<TRIPOS>UNITY_ATOM_ATTR
44 1
charge -1
@<TRIPOS>BOND
     1    47    48    1
     2    48    46    1
     3    46    35    1
     4    35    36   ar
     5    36    37   ar
     6    37    31    1
     7    31    32   am
     8    32    33    2
     9    32    27    1
    10    27     1    1
    11     1     2   am
    12     2     3    2
    13     2     5    1
    14     5     6   ar
    15     6     7   ar
    16     7     8   ar
    17     8     9   ar
    18     9    22    1
    19    22    23    1
    20    23    24    1
    21    24    25    1
    22    25    26    1
    23     9    10   ar
    24    10    15    1
    25    15    16   ar
    26    16    17   ar
    27    17    18   ar
    28    18    19    1
    29    18    20   ar
    30    20    21   ar
    31    10    11   ar
    32    11    12    1
    33    11    13   ar
    34    13    14   ar
    35    27    28    1
    36    28    29    1
    37    29    30    1
    38    37    38   ar
    39    38    39   ar
    40    39    40   ar
    41    40    41    1
    42    41    42    2
    43    42    43    1
    44    43    44   ar
    45    43    45   ar
    46    40    35   ar
    47    30    27    1
    48    14     5   ar
    49    13     8   ar
    50    26    22    1
    51    21    15   ar
    52    31    34    1
    53     1     4    1
@<TRIPOS>MOLECULE
*****
 48 53 0 0 0
SMALL
GASTEIGER

@<TRIPOS>ATOM
      1 N           7.8258   -3.5695   27.1854 N.am    1  UNL1       -0.2964
      2 C           6.7766   -3.9825   28.1746 C.2     1  UNL1        0.2461
      3 O           6.0243   -5.2653   27.9784 O.2     1  UNL1       -0.2701
      4 H           8.3195   -2.7276   27.3141 H       1  UNL1        0.1501
      5 C           6.4796   -3.1126   29.3600 C.ar    1  UNL1        0.0548
      6 C           7.1033   -3.4182   30.6895 C.ar    1  UNL1        0.0046
      7 C           6.8063   -2.5484   31.8749 C.ar    1  UNL1        0.0013
      8 C           5.8857   -1.3729   31.7308 C.ar    1  UNL1        0.0133
      9 C           5.4099   -0.3443   32.7135 C.ar    1  UNL1       -0.0023
     10 C           4.4921    0.5970   31.9912 C.ar    1  UNL1        0.0922
     11 N           4.4008    0.1502   30.5622 N.ar    1  UNL1       -0.3230
     12 C           3.5904    0.8057   29.4835 C.3     1  UNL1        0.1305
     13 C           5.2620   -1.0673   30.4013 C.ar    1  UNL1        0.0598
     14 C           5.5590   -1.9372   29.2159 C.ar    1  UNL1        0.0217
     15 C           3.7891    1.7779   32.5924 C.ar    1  UNL1        0.1781
     16 N           2.2952    1.7724   32.7276 N.ar    1  UNL1       -0.2229
     17 C           1.5922    2.9532   33.3288 C.ar    1  UNL1        0.1135
     18 C           2.3831    4.1396   33.7946 C.ar    1  UNL1        0.0959
     19 CL          1.6801    5.3205   34.3958 Cl      1  UNL1       -0.0790
     20 C           3.8770    4.1451   33.6594 C.ar    1  UNL1        0.1135
     21 N           4.5800    2.9643   33.0583 N.ar    1  UNL1       -0.2229
     22 C           5.7858   -0.2700   34.1637 C.3     1  UNL1        0.0239
     23 C           7.1753   -0.1170   34.7075 C.3     1  UNL1        0.0044
     24 C           7.0865   -0.0882   36.2046 C.3     1  UNL1        0.0003
     25 C           5.6422   -0.2234   36.5860 C.3     1  UNL1        0.0003
     26 C           4.8382   -0.3358   35.3246 C.3     1  UNL1        0.0044
     27 C           8.1227   -4.4394   25.9999 C.3     1  UNL1        0.1260
     28 C           8.9163   -5.3626   26.8762 C.3     1  UNL1        0.0270
     29 C           9.2132   -6.2325   25.6908 C.3     1  UNL1        0.0043
     30 C           8.4197   -5.3092   24.8145 C.3     1  UNL1        0.0270
     31 N           5.9767   -3.9323   24.6261 N.am    1  UNL1       -0.2826
     32 C           7.3292   -3.5162   25.1236 C.2     1  UNL1        0.2419
     33 O           7.8882   -2.1767   24.7448 O.2     1  UNL1       -0.2731
     34 H           5.6098   -4.8114   24.8748 H       1  UNL1        0.1549
     35 C           4.4169   -2.2579   21.3836 C.ar    1  UNL1        0.1397
     36 C           5.2104   -3.1811   22.2600 C.ar    1  UNL1        0.0515
     37 C           5.1831   -3.0090   23.7498 C.ar    1  UNL1        0.0534
     38 C           4.3624   -1.9136   24.3633 C.ar    1  UNL1        0.0149
     39 C           3.5688   -0.9903   23.4870 C.ar    1  UNL1        0.0043
     40 C           3.5961   -1.1624   21.9972 C.ar    1  UNL1        0.0341
     41 C           2.8027   -0.2392   21.1208 C.2     1  UNL1        0.0042
     42 C           1.3789   -0.5669   20.7810 C.2     1  UNL1        0.0152
     43 C           0.5854    0.3563   19.9047 C.2     1  UNL1        0.0729
     44 O          -0.5178    1.1852   20.4930 O.co2   1  UNL1       -0.5446
     45 O           0.8950    0.4508   18.4400 O.co2   1  UNL1       -0.5446
     46 O           4.4442   -2.4301   19.8938 O.3     1  UNL1       -0.4754
     47 C           3.5784   -4.8304   19.4052 C.3     1  UNL1        0.0512
     48 C           3.4612   -3.3457   19.2265 C.3     1  UNL1        0.2055
@<TRIPOS>UNITY_ATOM_ATTR
44 1
charge -1
@<TRIPOS>BOND
     1    47    48    1
     2    48    46    1
     3    46    35    1
     4    35    36   ar
     5    36    37   ar
     6    37    31    1
     7    31    32   am
     8    32    33    2
     9    32    27    1
    10    27     1    1
    11     1     2   am
    12     2     3    2
    13     2     5    1
    14     5     6   ar
    15     6     7   ar
    16     7     8   ar
    17     8     9   ar
    18     9    22    1
    19    22    23    1
    20    23    24    1
    21    24    25    1
    22    25    26    1
    23     9    10   ar
    24    10    15    1
    25    15    16   ar
    26    16    17   ar
    27    17    18   ar
    28    18    19    1
    29    18    20   ar
    30    20    21   ar
    31    10    11   ar
    32    11    12    1
    33    11    13   ar
    34    13    14   ar
    35    27    28    1
    36    28    29    1
    37    29    30    1
    38    37    38   ar
    39    38    39   ar
    40    39    40   ar
    41    40    41    1
    42    41    42    2
    43    42    43    1
    44    43    44   ar
    45    43    45   ar
    46    40    35   ar
    47    30    27    1
    48    14     5   ar
    49    13     8   ar
    50    26    22    1
    51    21    15   ar
    52    31    34    1
    53     1     4    1
@<TRIPOS>MOLECULE
*****
 48 53 0 0 0
SMALL
GASTEIGER

@<TRIPOS>ATOM
      1 N           3.5372   -1.8289   20.9660 N.am    1  UNL1       -0.2964
      2 C           3.9674   -0.6223   21.7463 C.2     1  UNL1        0.2461
      3 O           5.2986    0.0125   21.4726 O.2     1  UNL1       -0.2701
      4 H           2.6635   -2.2455   21.1456 H       1  UNL1        0.1501
      5 C           3.0664   -0.0504   22.8005 C.ar    1  UNL1        0.0548
      6 C           3.2440   -0.4488   24.2356 C.ar    1  UNL1        0.0046
      7 C           2.3431    0.1231   25.2897 C.ar    1  UNL1        0.0013
      8 C           1.2644    1.0933   24.9087 C.ar    1  UNL1        0.0133
      9 C           0.2323    1.8170   25.7218 C.ar    1  UNL1       -0.0023
     10 C          -0.5832    2.6626   24.7891 C.ar    1  UNL1        0.0922
     11 N          -0.0551    2.4616   23.3996 N.ar    1  UNL1       -0.3230
     12 C          -0.5772    3.1155   22.1548 C.3     1  UNL1        0.1305
     13 C           1.0868    1.4917   23.4735 C.ar    1  UNL1        0.0598
     14 C           1.9878    0.9198   22.4194 C.ar    1  UNL1        0.0217
     15 C          -1.7262    3.5530   25.1777 C.ar    1  UNL1        0.1781
     16 N          -1.4573    4.9293   25.7102 N.ar    1  UNL1       -0.2229
     17 C          -2.6002    5.8196   26.0987 C.ar    1  UNL1        0.1135
     18 C          -4.0119    5.3337   25.9548 C.ar    1  UNL1        0.0959
     19 CL         -5.1549    6.2241   26.3434 Cl      1  UNL1       -0.0790
     20 C          -4.2808    3.9574   25.4224 C.ar    1  UNL1        0.1135
     21 N          -3.1379    3.0671   25.0338 N.ar    1  UNL1       -0.2229
     22 C           0.0481    1.7132   27.2068 C.3     1  UNL1        0.0239
     23 C           0.6627    2.6143   28.2365 C.3     1  UNL1        0.0044
     24 C           0.2114    2.1482   29.5889 C.3     1  UNL1        0.0003
     25 C          -0.6821    0.9591   29.3951 C.3     1  UNL1        0.0003
     26 C          -0.7830    0.6902   27.9228 C.3     1  UNL1        0.0044
     27 C           4.4382   -2.4008   19.9118 C.3     1  UNL1        0.1260
     28 C           3.8603   -1.4524   18.9035 C.3     1  UNL1        0.0270
     29 C           4.7613   -2.0242   17.8493 C.3     1  UNL1        0.0043
     30 C           5.3391   -2.9726   18.8576 C.3     1  UNL1        0.0270
     31 N           6.2998   -3.0108   21.6183 N.am    1  UNL1       -0.2826
     32 C           5.0161   -3.3491   20.9201 C.2     1  UNL1        0.2419
     33 O           4.3102   -4.6358   21.2302 O.2     1  UNL1       -0.2731
     34 H           6.7632   -2.1663   21.4147 H       1  UNL1        0.1549
     35 C           6.9927   -4.8596   25.0609 C.ar    1  UNL1        0.1397
     36 C           6.4149   -3.9113   24.0526 C.ar    1  UNL1        0.0515
     37 C           6.8777   -3.9592   22.6266 C.ar    1  UNL1        0.0534
     38 C           7.9184   -4.9554   22.2089 C.ar    1  UNL1        0.0149
     39 C           8.4962   -5.9038   23.2173 C.ar    1  UNL1        0.0043
     40 C           8.0334   -5.8559   24.6433 C.ar    1  UNL1        0.0341
     41 C           8.6112   -6.8043   25.6516 C.2     1  UNL1        0.0042
     42 C           7.7150   -7.7601   26.3818 C.2     1  UNL1        0.0152
     43 C           8.2928   -8.7085   27.3901 C.2     1  UNL1        0.0729
     44 O           7.6598  -10.0512   27.6058 O.co2   1  UNL1       -0.5446
     45 O           9.5037   -8.3142   28.1828 O.co2   1  UNL1       -0.5446
     46 O           6.5298   -4.8117   26.4869 O.3     1  UNL1       -0.4754
     47 C           8.5254   -3.3922   27.3545 C.3     1  UNL1        0.0512
     48 C           7.0750   -3.7695   27.4178 C.3     1  UNL1        0.2055
@<TRIPOS>UNITY_ATOM_ATTR
44 1
charge -1
@<TRIPOS>BOND
     1    47    48    1
     2    48    46    1
     3    46    35    1
     4    35    36   ar
     5    36    37   ar
     6    37    31    1
     7    31    32   am
     8    32    33    2
     9    32    27    1
    10    27     1    1
    11     1     2   am
    12     2     3    2
    13     2     5    1
    14     5     6   ar
    15     6     7   ar
    16     7     8   ar
    17     8     9   ar
    18     9    22    1
    19    22    23    1
    20    23    24    1
    21    24    25    1
    22    25    26    1
    23     9    10   ar
    24    10    15    1
    25    15    16   ar
    26    16    17   ar
    27    17    18   ar
    28    18    19    1
    29    18    20   ar
    30    20    21   ar
    31    10    11   ar
    32    11    12    1
    33    11    13   ar
    34    13    14   ar
    35    27    28    1
    36    28    29    1
    37    29    30    1
    38    37    38   ar
    39    38    39   ar
    40    39    40   ar
    41    40    41    1
    42    41    42    2
    43    42    43    1
    44    43    44   ar
    45    43    45   ar
    46    40    35   ar
    47    30    27    1
    48    14     5   ar
    49    13     8   ar
    50    26    22    1
    51    21    15   ar
    52    31    34    1
    53     1     4    1
@<TRIPOS>MOLECULE
*****
 48 53 0 0 0
SMALL
GASTEIGER

@<TRIPOS>ATOM
      1 N           0.7477    3.2130   26.3388 N.am    1  UNL1       -0.2964
      2 C          -0.5392    2.4463   26.4141 C.2     1  UNL1        0.2461
      3 O          -0.5718    1.0982   27.0712 O.2     1  UNL1       -0.2701
      4 H           0.7691    4.0977   25.9075 H       1  UNL1        0.1501
      5 C          -1.7938    3.0275   25.8323 C.ar    1  UNL1        0.0548
      6 C          -2.9215    3.4323   26.7347 C.ar    1  UNL1        0.0046
      7 C          -4.1759    4.0136   26.1528 C.ar    1  UNL1        0.0013
      8 C          -4.3026    4.1900   24.6687 C.ar    1  UNL1        0.0133
      9 C          -5.4095    4.7312   23.8131 C.ar    1  UNL1       -0.0023
     10 C          -4.9658    4.6608   22.3819 C.ar    1  UNL1        0.0922
     11 N          -3.5847    4.0762   22.3530 N.ar    1  UNL1       -0.3230
     12 C          -2.7586    3.8264   21.1262 C.3     1  UNL1        0.1305
     13 C          -3.1748    3.7852   23.7663 C.ar    1  UNL1        0.0598
     14 C          -1.9204    3.2040   24.3481 C.ar    1  UNL1        0.0217
     15 C          -5.7632    5.0983   21.1891 C.ar    1  UNL1        0.1781
     16 N          -6.3291    4.0754   20.2491 N.ar    1  UNL1       -0.2229
     17 C          -7.1264    4.5128   19.0563 C.ar    1  UNL1        0.1135
     18 C          -7.3580    5.9731   18.8035 C.ar    1  UNL1        0.0959
     19 CL         -8.1554    6.4105   17.6106 Cl      1  UNL1       -0.0790
     20 C          -6.7921    6.9959   19.7434 C.ar    1  UNL1        0.1135
     21 N          -5.9948    6.5586   20.9362 N.ar    1  UNL1       -0.2229
     22 C          -6.7285    5.2513   24.3027 C.3     1  UNL1        0.0239
     23 C          -6.9263    6.3684   25.2840 C.3     1  UNL1        0.0044
     24 C          -8.4012    6.5532   25.4848 C.3     1  UNL1        0.0003
     25 C          -9.1150    5.5504   24.6277 C.3     1  UNL1        0.0003
     26 C          -8.0812    4.7458   23.8971 C.3     1  UNL1        0.0044
     27 C           2.0022    2.6317   26.9206 C.3     1  UNL1        0.1260
     28 C           1.6467    3.2053   28.2601 C.3     1  UNL1        0.0270
     29 C           2.9011    2.6241   28.8420 C.3     1  UNL1        0.0043
     30 C           3.2567    2.0505   27.5024 C.3     1  UNL1        0.0270
     31 N           1.8671    0.6942   25.1950 N.am    1  UNL1       -0.2826
     32 C           2.3578    2.0581   25.5810 C.2     1  UNL1        0.2419
     33 O           3.2040    2.8483   24.6273 O.2     1  UNL1       -0.2731
     34 H           1.3117    0.1755   25.8209 H       1  UNL1        0.1549
     35 C           3.6254   -1.5219   22.4116 C.ar    1  UNL1        0.1397
     36 C           3.2699   -0.9483   23.7512 C.ar    1  UNL1        0.0515
     37 C           2.2226    0.1206   23.8553 C.ar    1  UNL1        0.0534
     38 C           1.5310    0.6158   22.6199 C.ar    1  UNL1        0.0149
     39 C           1.8866    0.0422   21.2803 C.ar    1  UNL1        0.0043
     40 C           2.9338   -1.0267   21.1761 C.ar    1  UNL1        0.0341
     41 C           3.2894   -1.6003   19.8366 C.2     1  UNL1        0.0042
     42 C           4.2317   -0.8636   18.9314 C.2     1  UNL1        0.0152
     43 C           4.5873   -1.4372   17.5918 C.2     1  UNL1        0.0729
     44 O           5.7192   -2.4141   17.4707 O.co2   1  UNL1       -0.5446
     45 O           3.8110   -1.0340   16.3733 O.co2   1  UNL1       -0.5446
     46 O           4.6727   -2.5908   22.3075 O.3     1  UNL1       -0.4754
     47 C           6.7131   -1.0713   21.7805 C.3     1  UNL1        0.0512
     48 C           6.1193   -2.2449   22.5016 C.3     1  UNL1        0.2055
@<TRIPOS>UNITY_ATOM_ATTR
44 1
charge -1
@<TRIPOS>BOND
     1    47    48    1
     2    48    46    1
     3    46    35    1
     4    35    36   ar
     5    36    37   ar
     6    37    31    1
     7    31    32   am
     8    32    33    2
     9    32    27    1
    10    27     1    1
    11     1     2   am
    12     2     3    2
    13     2     5    1
    14     5     6   ar
    15     6     7   ar
    16     7     8   ar
    17     8     9   ar
    18     9    22    1
    19    22    23    1
    20    23    24    1
    21    24    25    1
    22    25    26    1
    23     9    10   ar
    24    10    15    1
    25    15    16   ar
    26    16    17   ar
    27    17    18   ar
    28    18    19    1
    29    18    20   ar
    30    20    21   ar
    31    10    11   ar
    32    11    12    1
    33    11    13   ar
    34    13    14   ar
    35    27    28    1
    36    28    29    1
    37    29    30    1
    38    37    38   ar
    39    38    39   ar
    40    39    40   ar
    41    40    41    1
    42    41    42    2
    43    42    43    1
    44    43    44   ar
    45    43    45   ar
    46    40    35   ar
    47    30    27    1
    48    14     5   ar
    49    13     8   ar
    50    26    22    1
    51    21    15   ar
    52    31    34    1
    53     1     4    1
@<TRIPOS>MOLECULE
*****
 48 53 0 0 0
SMALL
GASTEIGER

@<TRIPOS>ATOM
      1 N           2.8142   -1.0843   20.7422 N.am    1  UNL1       -0.2964
      2 C           4.0968   -0.6825   21.4081 C.2     1  UNL1        0.2461
      3 O           4.7430    0.6265   21.0631 O.2     1  UNL1       -0.2701
      4 H           2.3901   -1.9434   20.9686 H       1  UNL1        0.1501
      5 C           4.7332   -1.5896   22.4191 C.ar    1  UNL1        0.0548
      6 C           4.9660   -3.0343   22.0892 C.ar    1  UNL1        0.0046
      7 C           5.6024   -3.9413   23.1002 C.ar    1  UNL1        0.0013
      8 C           6.0061   -3.4038   24.4411 C.ar    1  UNL1        0.0133
      9 C           6.6491   -4.0532   25.6306 C.ar    1  UNL1       -0.0023
     10 C           6.8138   -3.0099   26.6956 C.ar    1  UNL1        0.0922
     11 N           6.2726   -1.7157   26.1644 N.ar    1  UNL1       -0.3230
     12 C           6.2368   -0.4077   26.8978 C.3     1  UNL1        0.1305
     13 C           5.7733   -1.9592   24.7710 C.ar    1  UNL1        0.0598
     14 C           5.1369   -1.0521   23.7600 C.ar    1  UNL1        0.0217
     15 C           7.4144   -3.2232   28.0536 C.ar    1  UNL1        0.1781
     16 N           6.5242   -3.4217   29.2445 N.ar    1  UNL1       -0.2229
     17 C           7.1247   -3.6350   30.6024 C.ar    1  UNL1        0.1135
     18 C           8.6153   -3.6499   30.7694 C.ar    1  UNL1        0.0959
     19 CL          9.2158   -3.8633   32.1273 Cl      1  UNL1       -0.0790
     20 C           9.5054   -3.4515   29.5784 C.ar    1  UNL1        0.1135
     21 N           8.9049   -3.2382   28.2205 N.ar    1  UNL1       -0.2229
     22 C           7.0560   -5.4931   25.7364 C.3     1  UNL1        0.0239
     23 C           7.9546   -6.2274   24.7860 C.3     1  UNL1        0.0044
     24 C           8.0897   -7.6396   25.2734 C.3     1  UNL1        0.0003
     25 C           7.2747   -7.7780   26.5249 C.3     1  UNL1        0.0003
     26 C           6.6358   -6.4514   26.8111 C.3     1  UNL1        0.0044
     27 C           2.1778   -0.1771   19.7312 C.3     1  UNL1        0.1260
     28 C           3.1383   -0.6660   18.6879 C.3     1  UNL1        0.0270
     29 C           2.5020    0.2411   17.6769 C.3     1  UNL1        0.0043
     30 C           1.5414    0.7300   18.7202 C.3     1  UNL1        0.0270
     31 N           1.6846    1.2594   21.8390 N.am    1  UNL1       -0.2826
     32 C           1.2172    0.3117   20.7744 C.2     1  UNL1        0.2419
     33 O          -0.2107   -0.1472   20.7530 O.2     1  UNL1       -0.2731
     34 H           2.6218    1.5606   21.8531 H       1  UNL1        0.1549
     35 C          -0.2252    1.6317   25.2979 C.ar    1  UNL1        0.1397
     36 C           0.7353    1.1430   24.2547 C.ar    1  UNL1        0.0515
     37 C           0.7240    1.7482   22.8823 C.ar    1  UNL1        0.0534
     38 C          -0.2479    2.8423   22.5531 C.ar    1  UNL1        0.0149
     39 C          -1.2086    3.3311   23.5963 C.ar    1  UNL1        0.0043
     40 C          -1.1972    2.7258   24.9687 C.ar    1  UNL1        0.0341
     41 C          -2.1578    3.2146   26.0120 C.2     1  UNL1        0.0042
     42 C          -2.3575    4.6871   26.2165 C.2     1  UNL1        0.0152
     43 C          -3.3181    5.1759   27.2598 C.2     1  UNL1        0.0729
     44 O          -4.5876    4.4213   27.5228 O.co2   1  UNL1       -0.5446
     45 O          -3.0093    6.4193   28.0400 O.co2   1  UNL1       -0.5446
     46 O          -0.2139    1.0265   26.6703 O.3     1  UNL1       -0.4754
     47 C           0.6210    2.1827   28.8419 C.3     1  UNL1        0.0512
     48 C           0.8971    1.3515   27.6242 C.3     1  UNL1        0.2055
@<TRIPOS>UNITY_ATOM_ATTR
44 1
charge -1
@<TRIPOS>BOND
     1    47    48    1
     2    48    46    1
     3    46    35    1
     4    35    36   ar
     5    36    37   ar
     6    37    31    1
     7    31    32   am
     8    32    33    2
     9    32    27    1
    10    27     1    1
    11     1     2   am
    12     2     3    2
    13     2     5    1
    14     5     6   ar
    15     6     7   ar
    16     7     8   ar
    17     8     9   ar
    18     9    22    1
    19    22    23    1
    20    23    24    1
    21    24    25    1
    22    25    26    1
    23     9    10   ar
    24    10    15    1
    25    15    16   ar
    26    16    17   ar
    27    17    18   ar
    28    18    19    1
    29    18    20   ar
    30    20    21   ar
    31    10    11   ar
    32    11    12    1
    33    11    13   ar
    34    13    14   ar
    35    27    28    1
    36    28    29    1
    37    29    30    1
    38    37    38   ar
    39    38    39   ar
    40    39    40   ar
    41    40    41    1
    42    41    42    2
    43    42    43    1
    44    43    44   ar
    45    43    45   ar
    46    40    35   ar
    47    30    27    1
    48    14     5   ar
    49    13     8   ar
    50    26    22    1
    51    21    15   ar
    52    31    34    1
    53     1     4    1
@<TRIPOS>MOLECULE
*****
 48 53 0 0 0
SMALL
GASTEIGER

@<TRIPOS>ATOM
      1 N           0.7372    0.9209   26.8734 N.am    1  UNL1       -0.2964
      2 C           0.4165    2.3843   26.7988 C.2     1  UNL1        0.2461
      3 O           1.2936    3.3809   27.4968 O.2     1  UNL1       -0.2701
      4 H           0.1615    0.2668   26.4152 H       1  UNL1        0.1501
      5 C          -0.7815    2.8511   26.0260 C.ar    1  UNL1        0.0548
      6 C          -2.0336    3.2474   26.7507 C.ar    1  UNL1        0.0046
      7 C          -3.2315    3.7142   25.9780 C.ar    1  UNL1        0.0013
      8 C          -3.1773    3.7846   24.4806 C.ar    1  UNL1        0.0133
      9 C          -4.1923    4.2021   23.4580 C.ar    1  UNL1       -0.0023
     10 C          -3.5675    4.0637   22.1014 C.ar    1  UNL1        0.0922
     11 N          -2.1663    3.5607   22.2856 N.ar    1  UNL1       -0.3230
     12 C          -1.1796    3.2796   21.1914 C.3     1  UNL1        0.1305
     13 C          -1.9252    3.3882   23.7560 C.ar    1  UNL1        0.0598
     14 C          -0.7273    2.9215   24.5287 C.ar    1  UNL1        0.0217
     15 C          -4.2278    4.3739   20.7907 C.ar    1  UNL1        0.1781
     16 N          -4.8574    3.2734   19.9892 N.ar    1  UNL1       -0.2229
     17 C          -5.5177    3.5834   18.6786 C.ar    1  UNL1        0.1135
     18 C          -5.5484    4.9940   18.1695 C.ar    1  UNL1        0.0959
     19 CL         -6.2087    5.3042   16.8588 Cl      1  UNL1       -0.0790
     20 C          -4.9188    6.0946   18.9710 C.ar    1  UNL1        0.1135
     21 N          -4.2585    5.7845   20.2816 N.ar    1  UNL1       -0.2229
     22 C          -5.5872    4.6749   23.7422 C.3     1  UNL1        0.0239
     23 C          -5.9663    5.8087   24.6481 C.3     1  UNL1        0.0044
     24 C          -7.4612    5.9315   24.6362 C.3     1  UNL1        0.0003
     25 C          -8.0060    4.8736   23.7230 C.3     1  UNL1        0.0003
     26 C          -6.8477    4.0969   23.1705 C.3     1  UNL1        0.0044
     27 C           1.9352    0.4541   27.6461 C.3     1  UNL1        0.1260
     28 C           1.1289    0.4784   28.9107 C.3     1  UNL1        0.0270
     29 C           2.3268    0.0116   29.6834 C.3     1  UNL1        0.0043
     30 C           3.1331   -0.0127   28.4188 C.3     1  UNL1        0.0270
     31 N           2.1427   -0.1195   25.1207 N.am    1  UNL1       -0.2826
     32 C           2.7415    0.4298   26.3815 C.2     1  UNL1        0.2419
     33 O           4.1467    0.9548   26.3777 O.2     1  UNL1       -0.2731
     34 H           1.2205   -0.4640   25.1231 H       1  UNL1        0.1549
     35 C           4.6942   -1.3065   22.3223 C.ar    1  UNL1        0.1397
     36 C           3.8879   -1.2822   23.5869 C.ar    1  UNL1        0.0515
     37 C           2.9491   -0.1437   23.8560 C.ar    1  UNL1        0.0534
     38 C           2.8166    0.9705   22.8606 C.ar    1  UNL1        0.0149
     39 C           3.6230    0.9462   21.5959 C.ar    1  UNL1        0.0043
     40 C           4.5618   -0.1923   21.3268 C.ar    1  UNL1        0.0341
     41 C           5.3682   -0.2166   20.0623 C.2     1  UNL1        0.0042
     42 C           4.8457   -0.9345   18.8533 C.2     1  UNL1        0.0152
     43 C           5.6521   -0.9588   17.5887 C.2     1  UNL1        0.0729
     44 O           5.3426    0.0066   16.4831 O.co2   1  UNL1       -0.5446
     45 O           6.7680   -1.9485   17.4297 O.co2   1  UNL1       -0.5446
     46 O           5.6330   -2.4451   22.0532 O.3     1  UNL1       -0.4754
     47 C           4.3329   -4.0917   20.5209 C.3     1  UNL1        0.0512
     48 C           5.0902   -3.8177   21.7863 C.3     1  UNL1        0.2055
@<TRIPOS>UNITY_ATOM_ATTR
44 1
charge -1
@<TRIPOS>BOND
     1    47    48    1
     2    48    46    1
     3    46    35    1
     4    35    36   ar
     5    36    37   ar
     6    37    31    1
     7    31    32   am
     8    32    33    2
     9    32    27    1
    10    27     1    1
    11     1     2   am
    12     2     3    2
    13     2     5    1
    14     5     6   ar
    15     6     7   ar
    16     7     8   ar
    17     8     9   ar
    18     9    22    1
    19    22    23    1
    20    23    24    1
    21    24    25    1
    22    25    26    1
    23     9    10   ar
    24    10    15    1
    25    15    16   ar
    26    16    17   ar
    27    17    18   ar
    28    18    19    1
    29    18    20   ar
    30    20    21   ar
    31    10    11   ar
    32    11    12    1
    33    11    13   ar
    34    13    14   ar
    35    27    28    1
    36    28    29    1
    37    29    30    1
    38    37    38   ar
    39    38    39   ar
    40    39    40   ar
    41    40    41    1
    42    41    42    2
    43    42    43    1
    44    43    44   ar
    45    43    45   ar
    46    40    35   ar
    47    30    27    1
    48    14     5   ar
    49    13     8   ar
    50    26    22    1
    51    21    15   ar
    52    31    34    1
    53     1     4    1
@<TRIPOS>MOLECULE
*****
 48 53 0 0 0
SMALL
GASTEIGER

@<TRIPOS>ATOM
      1 N           7.4420   -2.2972   28.1276 N.am    1  UNL1       -0.2964
      2 C           6.5113   -3.2939   27.5029 C.2     1  UNL1        0.2461
      3 O           6.0563   -4.4891   28.2867 O.2     1  UNL1       -0.2701
      4 H           7.7407   -1.5128   27.6131 H       1  UNL1        0.1501
      5 C           6.0357   -3.0955   26.0941 C.ar    1  UNL1        0.0548
      6 C           6.4412   -4.0633   25.0223 C.ar    1  UNL1        0.0046
      7 C           5.9656   -3.8648   23.6136 C.ar    1  UNL1        0.0013
      8 C           5.0844   -2.6985   23.2768 C.ar    1  UNL1        0.0133
      9 C           4.4647   -2.2483   21.9871 C.ar    1  UNL1       -0.0023
     10 C           3.6762   -1.0022   22.2619 C.ar    1  UNL1        0.0922
     11 N           3.8086   -0.6824   23.7215 N.ar    1  UNL1       -0.3230
     12 C           3.1808    0.4815   24.4295 C.3     1  UNL1        0.1305
     13 C           4.6789   -1.7308   24.3487 C.ar    1  UNL1        0.0598
     14 C           5.1545   -1.9292   25.7573 C.ar    1  UNL1        0.0217
     15 C           2.8928   -0.2143   21.2542 C.ar    1  UNL1        0.1781
     16 N           3.3421    1.1631   20.8655 N.ar    1  UNL1       -0.2229
     17 C           2.5588    1.9511   19.8578 C.ar    1  UNL1        0.1135
     18 C           1.3262    1.3616   19.2388 C.ar    1  UNL1        0.0959
     19 CL          0.5428    2.1496   18.2310 Cl      1  UNL1       -0.0790
     20 C           0.8769   -0.0157   19.6274 C.ar    1  UNL1        0.1135
     21 N           1.6602   -0.8037   20.6351 N.ar    1  UNL1       -0.2229
     22 C           4.6083   -2.9252   20.6563 C.3     1  UNL1        0.0239
     23 C           5.3579   -2.3912   19.4718 C.3     1  UNL1        0.0044
     24 C           5.2404   -3.3910   18.3598 C.3     1  UNL1        0.0003
     25 C           4.4183   -4.5429   18.8569 C.3     1  UNL1        0.0003
     26 C           4.0276   -4.2550   20.2763 C.3     1  UNL1        0.0044
     27 C           7.9176   -2.4956   29.5364 C.3     1  UNL1        0.1260
     28 C           8.9420   -3.4785   29.0520 C.3     1  UNL1        0.0270
     29 C           9.4176   -3.6769   30.4607 C.3     1  UNL1        0.0043
     30 C           8.3933   -2.6941   30.9450 C.3     1  UNL1        0.0270
     31 N           5.7430   -1.9815   30.8616 N.am    1  UNL1       -0.2826
     32 C           6.8933   -1.5128   30.0207 C.2     1  UNL1        0.2419
     33 O           7.0192   -0.0612   29.6642 O.2     1  UNL1       -0.2731
     34 H           5.6603   -2.9342   31.0956 H       1  UNL1        0.1549
     35 C           2.5583    0.3855   30.9366 C.ar    1  UNL1        0.1397
     36 C           3.5826   -0.5974   30.4523 C.ar    1  UNL1        0.0515
     37 C           4.7186   -0.9985   31.3460 C.ar    1  UNL1        0.0534
     38 C           4.8301   -0.4167   32.7240 C.ar    1  UNL1        0.0149
     39 C           3.8058    0.5662   33.2084 C.ar    1  UNL1        0.0043
     40 C           2.6698    0.9673   32.3147 C.ar    1  UNL1        0.0341
     41 C           1.6455    1.9502   32.7989 C.2     1  UNL1        0.0042
     42 C           1.7780    3.4036   32.4526 C.2     1  UNL1        0.0152
     43 C           0.7537    4.3865   32.9369 C.2     1  UNL1        0.0729
     44 O          -0.2575    4.9480   31.9816 O.co2   1  UNL1       -0.5446
     45 O           0.7404    4.8080   34.3764 O.co2   1  UNL1       -0.5446
     46 O           1.4223    0.7866   30.0428 O.3     1  UNL1       -0.4754
     47 C          -0.5655   -0.3576   28.8223 C.3     1  UNL1        0.0512
     48 C           0.9113   -0.1683   29.0051 C.3     1  UNL1        0.2055
@<TRIPOS>UNITY_ATOM_ATTR
44 1
charge -1
@<TRIPOS>BOND
     1    47    48    1
     2    48    46    1
     3    46    35    1
     4    35    36   ar
     5    36    37   ar
     6    37    31    1
     7    31    32   am
     8    32    33    2
     9    32    27    1
    10    27     1    1
    11     1     2   am
    12     2     3    2
    13     2     5    1
    14     5     6   ar
    15     6     7   ar
    16     7     8   ar
    17     8     9   ar
    18     9    22    1
    19    22    23    1
    20    23    24    1
    21    24    25    1
    22    25    26    1
    23     9    10   ar
    24    10    15    1
    25    15    16   ar
    26    16    17   ar
    27    17    18   ar
    28    18    19    1
    29    18    20   ar
    30    20    21   ar
    31    10    11   ar
    32    11    12    1
    33    11    13   ar
    34    13    14   ar
    35    27    28    1
    36    28    29    1
    37    29    30    1
    38    37    38   ar
    39    38    39   ar
    40    39    40   ar
    41    40    41    1
    42    41    42    2
    43    42    43    1
    44    43    44   ar
    45    43    45   ar
    46    40    35   ar
    47    30    27    1
    48    14     5   ar
    49    13     8   ar
    50    26    22    1
    51    21    15   ar
    52    31    34    1
    53     1     4    1
@<TRIPOS>MOLECULE
*****
 48 53 0 0 0
SMALL
GASTEIGER

@<TRIPOS>ATOM
      1 N           4.6577   -1.3139   20.9620 N.am    1  UNL1       -0.2964
      2 C           3.1606   -1.2311   20.9202 C.2     1  UNL1        0.2461
      3 O           2.3974   -1.9751   19.8647 O.2     1  UNL1       -0.2701
      4 H           5.1585   -0.8256   21.6548 H       1  UNL1        0.1501
      5 C           2.4265   -0.4042   21.9339 C.ar    1  UNL1        0.0548
      6 C           1.2685    0.4493   21.5090 C.ar    1  UNL1        0.0046
      7 C           0.5346    1.2761   22.5227 C.ar    1  UNL1        0.0013
      8 C           0.9586    1.2495   23.9613 C.ar    1  UNL1        0.0133
      9 C           0.4304    1.9526   25.1765 C.ar    1  UNL1       -0.0023
     10 C           1.2621    1.5337   26.3524 C.ar    1  UNL1        0.0922
     11 N           2.3041    0.5716   25.8640 N.ar    1  UNL1       -0.3230
     12 C           3.3502   -0.0974   26.7056 C.3     1  UNL1        0.1305
     13 C           2.1165    0.3960   24.3862 C.ar    1  UNL1        0.0598
     14 C           2.8505   -0.4308   23.3725 C.ar    1  UNL1        0.0217
     15 C           1.0831    1.9957   27.7683 C.ar    1  UNL1        0.1781
     16 N           0.6229    1.0300   28.8198 N.ar    1  UNL1       -0.2229
     17 C           0.4440    1.4919   30.2356 C.ar    1  UNL1        0.1135
     18 C           0.7252    2.9195   30.5999 C.ar    1  UNL1        0.0959
     19 CL          0.5462    3.3815   32.0158 Cl      1  UNL1       -0.0790
     20 C           1.1853    3.8852   29.5484 C.ar    1  UNL1        0.1135
     21 N           1.3643    3.4233   28.1326 N.ar    1  UNL1       -0.2229
     22 C          -0.7262    2.9071   25.2099 C.3     1  UNL1        0.0239
     23 C          -1.9023    2.8350   26.1382 C.3     1  UNL1        0.0044
     24 C          -2.8127    3.9846   25.8228 C.3     1  UNL1        0.0003
     25 C          -2.1995    4.7672   24.6997 C.3     1  UNL1        0.0003
     26 C          -0.9099    4.1012   24.3209 C.3     1  UNL1        0.0044
     27 C           5.3917   -2.1408   19.9483 C.3     1  UNL1        0.1260
     28 C           5.0147   -1.1615   18.8766 C.3     1  UNL1        0.0270
     29 C           5.7487   -1.9883   17.8629 C.3     1  UNL1        0.0043
     30 C           6.1257   -2.9676   18.9347 C.3     1  UNL1        0.0270
     31 N           7.0094   -2.9005   21.8340 N.am    1  UNL1       -0.2826
     32 C           5.7687   -3.1201   21.0201 C.2     1  UNL1        0.2419
     33 O           4.9050   -4.3191   21.2780 O.2     1  UNL1       -0.2731
     34 H           7.5763   -2.1136   21.6647 H       1  UNL1        0.1549
     35 C           7.1514   -4.7495   25.3427 C.ar    1  UNL1        0.1397
     36 C           6.7745   -3.7702   24.2709 C.ar    1  UNL1        0.0515
     37 C           7.3864   -3.8799   22.9058 C.ar    1  UNL1        0.0534
     38 C           8.3753   -4.9689   22.6125 C.ar    1  UNL1        0.0149
     39 C           8.7523   -5.9483   23.6844 C.ar    1  UNL1        0.0043
     40 C           8.1404   -5.8386   25.0495 C.ar    1  UNL1        0.0341
     41 C           8.5173   -6.8179   26.1213 C.2     1  UNL1        0.0042
     42 C           7.6587   -8.0218   26.3728 C.2     1  UNL1        0.0152
     43 C           8.0356   -9.0012   27.4446 C.2     1  UNL1        0.0729
     44 O           7.2561  -10.2724   27.6069 O.co2   1  UNL1       -0.5446
     45 O           9.1921   -8.7093   28.3542 O.co2   1  UNL1       -0.5446
     46 O           6.5395   -4.6398   26.7078 O.3     1  UNL1       -0.4754
     47 C           8.4132   -3.6815   28.2313 C.3     1  UNL1        0.0512
     48 C           7.0265   -3.5937   27.6662 C.3     1  UNL1        0.2055
@<TRIPOS>UNITY_ATOM_ATTR
44 1
charge -1
@<TRIPOS>BOND
     1    47    48    1
     2    48    46    1
     3    46    35    1
     4    35    36   ar
     5    36    37   ar
     6    37    31    1
     7    31    32   am
     8    32    33    2
     9    32    27    1
    10    27     1    1
    11     1     2   am
    12     2     3    2
    13     2     5    1
    14     5     6   ar
    15     6     7   ar
    16     7     8   ar
    17     8     9   ar
    18     9    22    1
    19    22    23    1
    20    23    24    1
    21    24    25    1
    22    25    26    1
    23     9    10   ar
    24    10    15    1
    25    15    16   ar
    26    16    17   ar
    27    17    18   ar
    28    18    19    1
    29    18    20   ar
    30    20    21   ar
    31    10    11   ar
    32    11    12    1
    33    11    13   ar
    34    13    14   ar
    35    27    28    1
    36    28    29    1
    37    29    30    1
    38    37    38   ar
    39    38    39   ar
    40    39    40   ar
    41    40    41    1
    42    41    42    2
    43    42    43    1
    44    43    44   ar
    45    43    45   ar
    46    40    35   ar
    47    30    27    1
    48    14     5   ar
    49    13     8   ar
    50    26    22    1
    51    21    15   ar
    52    31    34    1
    53     1     4    1
@<TRIPOS>MOLECULE
*****
 48 53 0 0 0
SMALL
GASTEIGER

@<TRIPOS>ATOM
      1 N           0.1745    2.4892   27.1122 N.am    1  UNL1       -0.2964
      2 C          -0.1500    1.4920   28.1847 C.2     1  UNL1        0.2461
      3 O          -1.5329    0.9196   28.2831 O.2     1  UNL1       -0.2701
      4 H           1.0822    2.8649   27.0476 H       1  UNL1        0.1501
      5 C           0.9086    1.0673   29.1590 C.ar    1  UNL1        0.0548
      6 C           1.7878   -0.1072   28.8465 C.ar    1  UNL1        0.0046
      7 C           2.8462   -0.5319   29.8207 C.ar    1  UNL1        0.0013
      8 C           3.0256    0.2179   31.1075 C.ar    1  UNL1        0.0133
      9 C           3.9770    0.0334   32.2524 C.ar    1  UNL1       -0.0023
     10 C           3.6858    1.0938   33.2725 C.ar    1  UNL1        0.0922
     11 N           2.5544    1.9337   32.7580 N.ar    1  UNL1       -0.3230
     12 C           1.9391    3.1087   33.4586 C.3     1  UNL1        0.1305
     13 C           2.1464    1.3923   31.4200 C.ar    1  UNL1        0.0598
     14 C           1.0879    1.8170   30.4457 C.ar    1  UNL1        0.0217
     15 C           4.4005    1.2815   34.5779 C.ar    1  UNL1        0.1781
     16 N           5.2314    2.5089   34.8084 N.ar    1  UNL1       -0.2229
     17 C           5.9460    2.6966   36.1137 C.ar    1  UNL1        0.1135
     18 C           5.8298    1.6570   37.1886 C.ar    1  UNL1        0.0959
     19 CL          6.5444    1.8446   38.4941 Cl      1  UNL1       -0.0790
     20 C           4.9989    0.4295   36.9582 C.ar    1  UNL1        0.1135
     21 N           4.2842    0.2418   35.6529 N.ar    1  UNL1       -0.2229
     22 C           5.0340   -1.0256   32.3586 C.3     1  UNL1        0.0239
     23 C           4.7994   -2.4803   32.6395 C.3     1  UNL1        0.0044
     24 C           6.1315   -3.1696   32.6570 C.3     1  UNL1        0.0003
     25 C           7.1893   -2.1410   32.3869 C.3     1  UNL1        0.0003
     26 C           6.5110   -0.8159   32.2025 C.3     1  UNL1        0.0044
     27 C          -0.8840    2.9139   26.1379 C.3     1  UNL1        0.1260
     28 C          -1.4756    3.8206   27.1761 C.3     1  UNL1        0.0270
     29 C          -2.5342    4.2454   26.2019 C.3     1  UNL1        0.0043
     30 C          -1.9426    3.3387   25.1637 C.3     1  UNL1        0.0270
     31 N           0.2723    2.5830   23.8350 N.am    1  UNL1       -0.2826
     32 C          -0.2924    2.0072   25.0997 C.2     1  UNL1        0.2419
     33 O          -0.2655    0.5246   25.3263 O.2     1  UNL1       -0.2731
     34 H           0.2546    3.5560   23.6863 H       1  UNL1        0.1549
     35 C           2.7796    0.1094   22.0061 C.ar    1  UNL1        0.1397
     36 C           2.1880    1.0162   23.0442 C.ar    1  UNL1        0.0515
     37 C           0.8639    1.6762   22.7968 C.ar    1  UNL1        0.0534
     38 C           0.1314    1.4294   21.5113 C.ar    1  UNL1        0.0149
     39 C           0.7231    0.5226   20.4731 C.ar    1  UNL1        0.0043
     40 C           2.0471   -0.1374   20.7205 C.ar    1  UNL1        0.0341
     41 C           2.6388   -1.0441   19.6824 C.2     1  UNL1        0.0042
     42 C           3.6402   -0.5092   18.7022 C.2     1  UNL1        0.0152
     43 C           4.2319   -1.4159   17.6641 C.2     1  UNL1        0.0729
     44 O           5.1208   -2.5510   18.0784 O.co2   1  UNL1       -0.5446
     45 O           3.9347   -1.1877   16.2116 O.co2   1  UNL1       -0.5446
     46 O           4.1037   -0.5506   22.2535 O.3     1  UNL1       -0.4754
     47 C           4.4197   -3.1286   22.3160 C.3     1  UNL1        0.0512
     48 C           4.1692   -1.8329   23.0290 C.3     1  UNL1        0.2055
@<TRIPOS>UNITY_ATOM_ATTR
44 1
charge -1
@<TRIPOS>BOND
     1    47    48    1
     2    48    46    1
     3    46    35    1
     4    35    36   ar
     5    36    37   ar
     6    37    31    1
     7    31    32   am
     8    32    33    2
     9    32    27    1
    10    27     1    1
    11     1     2   am
    12     2     3    2
    13     2     5    1
    14     5     6   ar
    15     6     7   ar
    16     7     8   ar
    17     8     9   ar
    18     9    22    1
    19    22    23    1
    20    23    24    1
    21    24    25    1
    22    25    26    1
    23     9    10   ar
    24    10    15    1
    25    15    16   ar
    26    16    17   ar
    27    17    18   ar
    28    18    19    1
    29    18    20   ar
    30    20    21   ar
    31    10    11   ar
    32    11    12    1
    33    11    13   ar
    34    13    14   ar
    35    27    28    1
    36    28    29    1
    37    29    30    1
    38    37    38   ar
    39    38    39   ar
    40    39    40   ar
    41    40    41    1
    42    41    42    2
    43    42    43    1
    44    43    44   ar
    45    43    45   ar
    46    40    35   ar
    47    30    27    1
    48    14     5   ar
    49    13     8   ar
    50    26    22    1
    51    21    15   ar
    52    31    34    1
    53     1     4    1
