@<TRIPOS>MOLECULE
*****
 32 34 0 0 0
SMALL
GASTEIGER

@<TRIPOS>ATOM
      1 C          -9.7999  -18.2010   22.7989 C.3     1  UNL1        0.0376
      2 C         -10.4859  -19.0600   21.7784 C.3     1  UNL1        0.0075
      3 C          -9.6946  -19.6767   20.6632 C.3     1  UNL1        0.0219
      4 C          -8.2173  -19.4342   20.5686 C.3     1  UNL1        0.0950
      5 N          -7.5314  -18.5752   21.5890 N.am    1  UNL1       -0.2637
      6 C          -6.0541  -18.3328   21.4943 C.2     1  UNL1        0.3077
      7 O          -5.3682  -17.4737   22.5148 O.2     1  UNL1       -0.2522
      8 N          -5.2628  -18.9494   20.3791 N.am    1  UNL1       -0.2681
      9 C          -8.3226  -17.9585   22.7042 C.3     1  UNL1        0.0989
     10 H          -5.7131  -19.5133   19.7093 H       1  UNL1        0.1564
     11 C          -3.7856  -18.7070   20.2845 C.ar    1  UNL1        0.0516
     12 C          -2.8823  -19.1344   21.4033 C.ar    1  UNL1        0.0156
     13 C          -1.4051  -18.8920   21.3087 C.ar    1  UNL1        0.0127
     14 C          -0.8311  -18.2221   20.0955 C.ar    1  UNL1        0.0578
     15 CL          0.6462  -17.9797   20.0009 Cl      1  UNL1       -0.0822
     16 C          -1.7344  -17.7948   18.9768 C.ar    1  UNL1        0.0127
     17 C          -3.2116  -18.0372   19.0713 C.ar    1  UNL1        0.0156
     18 C         -11.2089  -18.1373   23.3096 C.ar    1  UNL1       -0.0173
     19 C         -11.5976  -18.9083   24.5361 C.ar    1  UNL1       -0.0043
     20 C         -13.0065  -18.8447   25.0468 C.ar    1  UNL1       -0.0003
     21 C         -14.0267  -18.0100   24.3310 C.ar    1  UNL1       -0.0001
     22 C         -13.6380  -17.2390   23.1045 C.ar    1  UNL1        0.0035
     23 C         -12.2291  -17.3026   22.5938 C.ar    1  UNL1        0.0675
     24 C         -11.8404  -16.5316   21.3672 C.3     1  UNL1        0.4183
     25 F         -11.4516  -15.7606   20.1406 F       1  UNL1       -0.1659
     26 F         -11.2972  -15.6673   21.7591 F       1  UNL1       -0.1659
     27 F         -12.5114  -17.5613   20.5073 F       1  UNL1       -0.1659
     28 C          -9.6032  -17.3198   23.9968 C.3     1  UNL1        0.0116
     29 C          -8.9065  -15.9995   23.8504 C.3     1  UNL1        0.0421
     30 O          -6.7653  -14.7642   24.6498 O.co2   1  UNL1       -0.5492
     31 C          -8.0470  -15.4775   24.9634 C.2     1  UNL1        0.0503
     32 O          -8.4693  -15.6689   26.3899 O.co2   1  UNL1       -0.5492
@<TRIPOS>UNITY_ATOM_ATTR
30 1
charge -1
@<TRIPOS>BOND
     1    30    31   ar
     2    31    32   ar
     3    31    29    1
     4    29    28    1
     5    28     1    1
     6     1    18    1
     7    18    19   ar
     8    19    20   ar
     9    20    21   ar
    10    21    22   ar
    11    22    23   ar
    12    23    24    1
    13    24    25    1
    14    24    26    1
    15    24    27    1
    16     1     2    1
    17     2     3    1
    18     3     4    1
    19     4     5    1
    20     5     6   am
    21     6     7    2
    22     6     8   am
    23     8    11    1
    24    11    12   ar
    25    12    13   ar
    26    13    14   ar
    27    14    15    1
    28    14    16   ar
    29    16    17   ar
    30     5     9    1
    31     9     1    1
    32    23    18   ar
    33    17    11   ar
    34     8    10    1
@<TRIPOS>MOLECULE
*****
 32 34 0 0 0
SMALL
GASTEIGER

@<TRIPOS>ATOM
      1 C          -9.5701  -18.0704   22.6153 C.3     1  UNL1        0.0376
      2 C         -10.2576  -18.8980   21.5702 C.3     1  UNL1        0.0075
      3 C          -9.4616  -19.5144   20.4582 C.3     1  UNL1        0.0219
      4 C          -7.9780  -19.3031   20.3914 C.3     1  UNL1        0.0950
      5 N          -7.2905  -18.4754   21.4365 N.am    1  UNL1       -0.2637
      6 C          -5.8069  -18.2641   21.3697 C.2     1  UNL1        0.3077
      7 O          -5.1195  -17.4365   22.4149 O.2     1  UNL1       -0.2522
      8 N          -5.0109  -18.8805   20.2577 N.am    1  UNL1       -0.2681
      9 C          -8.0865  -17.8591   22.5485 C.3     1  UNL1        0.0989
     10 H          -5.4621  -19.4237   19.5718 H       1  UNL1        0.1564
     11 C          -3.5274  -18.6691   20.1910 C.ar    1  UNL1        0.0516
     12 C          -2.9295  -17.9048   19.0471 C.ar    1  UNL1        0.0156
     13 C          -1.4461  -17.6934   18.9803 C.ar    1  UNL1        0.0127
     14 C          -0.5604  -18.2463   20.0574 C.ar    1  UNL1        0.0578
     15 CL          0.9232  -18.0349   19.9905 Cl      1  UNL1       -0.0822
     16 C          -1.1583  -19.0106   21.2012 C.ar    1  UNL1        0.0127
     17 C          -2.6418  -19.2220   21.2680 C.ar    1  UNL1        0.0156
     18 C         -10.9856  -17.9838   23.1040 C.ar    1  UNL1       -0.0173
     19 C         -11.9075  -16.9378   22.5508 C.ar    1  UNL1       -0.0043
     20 C         -13.3229  -16.8513   23.0396 C.ar    1  UNL1       -0.0003
     21 C         -13.8166  -17.8107   24.0816 C.ar    1  UNL1       -0.0001
     22 C         -12.8947  -18.8567   24.6348 C.ar    1  UNL1        0.0035
     23 C         -11.4793  -18.9432   24.1461 C.ar    1  UNL1        0.0675
     24 C         -10.5574  -19.9892   24.6993 C.3     1  UNL1        0.4183
     25 F          -9.6355  -21.0352   25.2526 F       1  UNL1       -0.1659
     26 F         -10.6752  -20.8343   24.0154 F       1  UNL1       -0.1659
     27 F         -10.1610  -19.0554   25.8042 F       1  UNL1       -0.1659
     28 C          -9.3742  -17.2126   23.8302 C.3     1  UNL1        0.0116
     29 C          -8.5683  -15.9511   23.7356 C.3     1  UNL1        0.0421
     30 O          -6.4954  -14.8044   24.8024 O.co2   1  UNL1       -0.5492
     31 C          -7.8534  -15.4253   24.9449 C.2     1  UNL1        0.0503
     32 O          -8.4965  -15.5206   26.2967 O.co2   1  UNL1       -0.5492
@<TRIPOS>UNITY_ATOM_ATTR
30 1
charge -1
@<TRIPOS>BOND
     1    30    31   ar
     2    31    32   ar
     3    31    29    1
     4    29    28    1
     5    28     1    1
     6     1    18    1
     7    18    19   ar
     8    19    20   ar
     9    20    21   ar
    10    21    22   ar
    11    22    23   ar
    12    23    24    1
    13    24    25    1
    14    24    26    1
    15    24    27    1
    16     1     2    1
    17     2     3    1
    18     3     4    1
    19     4     5    1
    20     5     6   am
    21     6     7    2
    22     6     8   am
    23     8    11    1
    24    11    12   ar
    25    12    13   ar
    26    13    14   ar
    27    14    15    1
    28    14    16   ar
    29    16    17   ar
    30     5     9    1
    31     9     1    1
    32    23    18   ar
    33    17    11   ar
    34     8    10    1
@<TRIPOS>MOLECULE
*****
 32 34 0 0 0
SMALL
GASTEIGER

@<TRIPOS>ATOM
      1 C          -9.7013  -17.8818   23.2335 C.3     1  UNL1        0.0376
      2 C          -9.7504  -16.9279   24.3900 C.3     1  UNL1        0.0075
      3 C          -8.4964  -16.2503   24.8572 C.3     1  UNL1        0.0219
      4 C          -7.1931  -16.5267   24.1677 C.3     1  UNL1        0.0950
      5 N          -7.1440  -17.4807   23.0113 N.am    1  UNL1       -0.2637
      6 C          -5.8408  -17.7571   22.3218 C.2     1  UNL1        0.3077
      7 O          -5.7917  -18.7111   21.1654 O.2     1  UNL1       -0.2522
      8 N          -4.5867  -17.0795   22.7890 N.am    1  UNL1       -0.2681
      9 C          -8.3980  -18.1583   22.5441 C.3     1  UNL1        0.0989
     10 H          -4.6189  -16.4533   23.5480 H       1  UNL1        0.1564
     11 C          -3.2836  -17.3559   22.0995 C.ar    1  UNL1        0.0516
     12 C          -2.4100  -16.2174   21.6627 C.ar    1  UNL1        0.0156
     13 C          -1.1069  -16.4938   20.9733 C.ar    1  UNL1        0.0127
     14 C          -0.6772  -17.9086   20.7206 C.ar    1  UNL1        0.0578
     15 CL          0.6260  -18.1850   20.0312 Cl      1  UNL1       -0.0822
     16 C          -1.5508  -19.0470   21.1575 C.ar    1  UNL1        0.0127
     17 C          -2.8540  -18.7707   21.8470 C.ar    1  UNL1        0.0156
     18 C         -11.1639  -17.9443   23.5607 C.ar    1  UNL1       -0.0173
     19 C         -11.6358  -18.7475   24.7364 C.ar    1  UNL1       -0.0043
     20 C         -13.0983  -18.8099   25.0635 C.ar    1  UNL1       -0.0003
     21 C         -14.0889  -18.0692   24.2150 C.ar    1  UNL1       -0.0001
     22 C         -13.6170  -17.2660   23.0394 C.ar    1  UNL1        0.0035
     23 C         -12.1545  -17.2036   22.7123 C.ar    1  UNL1        0.0675
     24 C         -11.6825  -16.4003   21.5366 C.3     1  UNL1        0.4183
     25 F         -11.2106  -15.5972   20.3609 F       1  UNL1       -0.1659
     26 F         -11.0840  -15.6023   21.9845 F       1  UNL1       -0.1659
     27 F         -12.4110  -17.3283   20.6102 F       1  UNL1       -0.1659
     28 C         -10.1601  -18.8575   22.1906 C.3     1  UNL1        0.0116
     29 C          -9.1701  -19.4547   21.2351 C.3     1  UNL1        0.0421
     30 O          -8.2164  -19.2167   18.8301 O.co2   1  UNL1       -0.5492
     31 C          -9.3904  -19.3371   19.7560 C.2     1  UNL1        0.0503
     32 O         -10.7847  -19.3399   19.2029 O.co2   1  UNL1       -0.5492
@<TRIPOS>UNITY_ATOM_ATTR
30 1
charge -1
@<TRIPOS>BOND
     1    30    31   ar
     2    31    32   ar
     3    31    29    1
     4    29    28    1
     5    28     1    1
     6     1    18    1
     7    18    19   ar
     8    19    20   ar
     9    20    21   ar
    10    21    22   ar
    11    22    23   ar
    12    23    24    1
    13    24    25    1
    14    24    26    1
    15    24    27    1
    16     1     2    1
    17     2     3    1
    18     3     4    1
    19     4     5    1
    20     5     6   am
    21     6     7    2
    22     6     8   am
    23     8    11    1
    24    11    12   ar
    25    12    13   ar
    26    13    14   ar
    27    14    15    1
    28    14    16   ar
    29    16    17   ar
    30     5     9    1
    31     9     1    1
    32    23    18   ar
    33    17    11   ar
    34     8    10    1
@<TRIPOS>MOLECULE
*****
 32 34 0 0 0
SMALL
GASTEIGER

@<TRIPOS>ATOM
      1 C          -9.4761  -17.6660   23.0808 C.3     1  UNL1        0.0376
      2 C          -9.4937  -16.8101   24.3124 C.3     1  UNL1        0.0075
      3 C          -8.2161  -16.2254   24.8377 C.3     1  UNL1        0.0219
      4 C          -6.9209  -16.4965   24.1312 C.3     1  UNL1        0.0950
      5 N          -6.9033  -17.3524   22.8996 N.am    1  UNL1       -0.2637
      6 C          -5.6082  -17.6236   22.1931 C.2     1  UNL1        0.3077
      7 O          -5.5907  -18.4795   20.9614 O.2     1  UNL1       -0.2522
      8 N          -4.3306  -17.0388   22.7184 N.am    1  UNL1       -0.2681
      9 C          -8.1809  -17.9372   22.3743 C.3     1  UNL1        0.0989
     10 H          -4.3422  -16.4771   23.5268 H       1  UNL1        0.1564
     11 C          -3.0356  -17.3100   22.0119 C.ar    1  UNL1        0.0516
     12 C          -2.1670  -16.1683   21.5735 C.ar    1  UNL1        0.0156
     13 C          -0.8720  -16.4394   20.8670 C.ar    1  UNL1        0.0127
     14 C          -0.4453  -17.8522   20.5989 C.ar    1  UNL1        0.0578
     15 CL          0.8498  -18.1234   19.8923 Cl      1  UNL1       -0.0822
     16 C          -1.3138  -18.9940   21.0372 C.ar    1  UNL1        0.0127
     17 C          -2.6089  -18.7228   21.7438 C.ar    1  UNL1        0.0156
     18 C         -10.9420  -17.6957   23.3977 C.ar    1  UNL1       -0.0173
     19 C         -11.8468  -16.6257   22.8626 C.ar    1  UNL1       -0.0043
     20 C         -13.3126  -16.6555   23.1795 C.ar    1  UNL1       -0.0003
     21 C         -13.8736  -17.7552   24.0315 C.ar    1  UNL1       -0.0001
     22 C         -12.9688  -18.8252   24.5666 C.ar    1  UNL1        0.0035
     23 C         -11.5030  -18.7955   24.2496 C.ar    1  UNL1        0.0675
     24 C         -10.5980  -19.8655   24.7847 C.3     1  UNL1        0.4183
     25 F          -9.6932  -20.9355   25.3197 F       1  UNL1       -0.1659
     26 F         -10.1995  -19.4374   25.7086 F       1  UNL1       -0.1659
     27 F         -10.9359  -20.7376   23.6120 F       1  UNL1       -0.1659
     28 C          -9.9676  -18.5323   21.9591 C.3     1  UNL1        0.0116
     29 C          -8.9885  -19.2897   21.1120 C.3     1  UNL1        0.0421
     30 O          -8.0334  -19.3166   18.6960 O.co2   1  UNL1       -0.5492
     31 C          -9.2033  -19.3967   19.6313 C.2     1  UNL1        0.0503
     32 O         -10.5881  -19.5839   19.0860 O.co2   1  UNL1       -0.5492
@<TRIPOS>UNITY_ATOM_ATTR
30 1
charge -1
@<TRIPOS>BOND
     1    30    31   ar
     2    31    32   ar
     3    31    29    1
     4    29    28    1
     5    28     1    1
     6     1    18    1
     7    18    19   ar
     8    19    20   ar
     9    20    21   ar
    10    21    22   ar
    11    22    23   ar
    12    23    24    1
    13    24    25    1
    14    24    26    1
    15    24    27    1
    16     1     2    1
    17     2     3    1
    18     3     4    1
    19     4     5    1
    20     5     6   am
    21     6     7    2
    22     6     8   am
    23     8    11    1
    24    11    12   ar
    25    12    13   ar
    26    13    14   ar
    27    14    15    1
    28    14    16   ar
    29    16    17   ar
    30     5     9    1
    31     9     1    1
    32    23    18   ar
    33    17    11   ar
    34     8    10    1
