@<TRIPOS>MOLECULE
*****
 43 49 0 0 0
SMALL
GASTEIGER

@<TRIPOS>ATOM
      1 N           3.6455    1.4320   35.4947 N.3     1  UNL1       -0.2676
      2 C           4.4663    0.5292   34.6222 C.3     1  UNL1        0.0746
      3 C           4.1275    0.3801   33.1686 C.3     1  UNL1        0.0449
      4 C           2.9680    1.1337   32.5876 C.3     1  UNL1        0.1391
      5 C           2.1473    2.0365   33.4601 C.3     1  UNL1        0.0449
      6 C           2.4860    2.1856   34.9137 C.3     1  UNL1        0.0746
      7 C           1.8440    1.8197   31.8693 C.2     1  UNL1        0.2529
      8 O           0.8613    2.7753   32.4786 O.2     1  UNL1       -0.2724
      9 N           1.8751    1.3824   30.4347 N.am    1  UNL1       -0.1907
     10 C           3.0184    0.4260   30.2664 C.2     1  UNL1        0.3219
     11 O           3.4164   -0.2567   28.9916 O.2     1  UNL1       -0.2512
     12 N           3.6939    0.2723   31.5969 N.am    1  UNL1       -0.2222
     13 C           4.8859   -0.5910   31.8861 C.ar    1  UNL1        0.1453
     14 C           4.6978   -2.0396   32.2270 C.ar    1  UNL1        0.0922
     15 C           5.8898   -2.9029   32.5161 C.ar    1  UNL1        0.2259
     16 O           5.7018   -4.3515   32.8570 O.3     1  UNL1       -0.4919
     17 N           7.2701   -2.3178   32.4644 N.ar    1  UNL1       -0.1894
     18 C           7.4581   -0.8692   32.1235 C.ar    1  UNL1        0.2027
     19 N           6.2661   -0.0059   31.8344 N.ar    1  UNL1       -0.2084
     20 H           4.8396   -4.7171   32.8893 H       1  UNL1        0.2938
     21 C           0.9290    1.8238   29.3577 C.ar    1  UNL1        0.0622
     22 C           0.9299    3.2514   28.8976 C.ar    1  UNL1        0.0154
     23 C          -0.0162    3.6929   27.8205 C.ar    1  UNL1        0.0013
     24 C          -0.9631    2.7067   27.2036 C.ar    1  UNL1        0.0001
     25 C          -0.9639    1.2790   27.6637 C.ar    1  UNL1        0.0013
     26 C          -0.0179    0.8375   28.7407 C.ar    1  UNL1        0.0154
     27 C          -1.9091    3.1481   26.1265 C.ar    1  UNL1        0.0015
     28 C          -1.4652    3.1522   24.6937 C.ar    1  UNL1        0.0006
     29 C          -2.4112    3.5936   23.6166 C.ar    1  UNL1        0.0080
     30 C          -3.8013    4.0310   23.9723 C.ar    1  UNL1        0.0485
     31 S          -4.9468    4.5148   23.1335 S.2     1  UNL1       -0.0645
     32 C          -6.0987    4.8098   24.0478 C.ar    1  UNL1        0.1345
     33 N          -5.6651    4.5083   25.4517 N.ar    1  UNL1       -0.2363
     34 C          -4.2452    4.0270   25.4052 C.ar    1  UNL1        0.0879
     35 C          -3.2992    3.5855   26.4822 C.ar    1  UNL1        0.0196
     36 C           3.9843    1.5811   36.9484 C.3     1  UNL1        0.1183
     37 C           2.8440    4.1501   37.9975 C.3     1  UNL1        0.0323
     38 C           2.3248    2.8370   38.5037 C.ar    1  UNL1       -0.0069
     39 C           1.2354    2.8084   39.5344 C.ar    1  UNL1       -0.0015
     40 C           0.7161    1.4954   40.0406 C.ar    1  UNL1        0.0203
     41 C           1.2862    0.2109   39.5161 C.ar    1  UNL1        0.0985
     42 N           2.3756    0.2395   38.4853 N.ar    1  UNL1       -0.2471
     43 C           2.8949    1.5525   37.9791 C.ar    1  UNL1        0.0712
@<TRIPOS>BOND
     1    37    38    1
     2    38    39   ar
     3    39    40   ar
     4    40    41   ar
     5    41    42   ar
     6    42    43   ar
     7    43    36    1
     8    36     1    1
     9     1     2    1
    10     2     3    1
    11     3     4    1
    12     4     5    1
    13     5     6    1
    14     4     7    1
    15     7     8    2
    16     7     9   am
    17     9    21    1
    18    21    22   ar
    19    22    23   ar
    20    23    24   ar
    21    24    27    1
    22    27    28   ar
    23    28    29   ar
    24    29    30   ar
    25    30    31   ar
    26    31    32   ar
    27    32    33   ar
    28    33    34   ar
    29    34    35   ar
    30    24    25   ar
    31    25    26   ar
    32     9    10   am
    33    10    11    2
    34    10    12   am
    35    12    13    1
    36    13    14   ar
    37    14    15   ar
    38    15    16    1
    39    15    17   ar
    40    17    18   ar
    41    18    19   ar
    42    43    38   ar
    43     6     1    1
    44    26    21   ar
    45    19    13   ar
    46    12     4    1
    47    35    27   ar
    48    34    30   ar
    49    16    20    1
@<TRIPOS>MOLECULE
*****
 43 49 0 0 0
SMALL
GASTEIGER

@<TRIPOS>ATOM
      1 N           2.7554    2.8237   35.0717 N.3     1  UNL1       -0.2676
      2 C           3.5579    1.7679   34.3709 C.3     1  UNL1        0.0746
      3 C           3.2661    1.4314   32.9386 C.3     1  UNL1        0.0449
      4 C           2.1718    2.1506   32.2071 C.3     1  UNL1        0.1391
      5 C           1.3692    3.2064   32.9079 C.3     1  UNL1        0.0449
      6 C           1.6611    3.5430   34.3402 C.3     1  UNL1        0.0746
      7 C           1.1143    2.7819   31.3509 C.2     1  UNL1        0.2529
      8 O           0.1629    3.8606   31.7766 O.2     1  UNL1       -0.2724
      9 N           1.1752    2.1451   29.9940 N.am    1  UNL1       -0.1907
     10 C           2.2704    1.1202   30.0118 C.2     1  UNL1        0.3219
     11 O           2.6780    0.2455   28.8635 O.2     1  UNL1       -0.2512
     12 N           2.8863    1.1236   31.3795 N.am    1  UNL1       -0.2222
     13 C           4.0180    0.2530   31.8390 C.ar    1  UNL1        0.1453
     14 C           3.7461   -1.1464   32.3057 C.ar    1  UNL1        0.0922
     15 C           4.8779   -2.0169   32.7652 C.ar    1  UNL1        0.2259
     16 O           4.6060   -3.4163   33.2320 O.3     1  UNL1       -0.4919
     17 N           6.2816   -1.4882   32.7580 N.ar    1  UNL1       -0.1894
     18 C           6.5536   -0.0889   32.2912 C.ar    1  UNL1        0.2027
     19 N           5.4218    0.7817   31.8317 N.ar    1  UNL1       -0.2084
     20 H           3.7292   -3.7466   33.2365 H       1  UNL1        0.2938
     21 C           0.2954    2.4751   28.8248 C.ar    1  UNL1        0.0622
     22 C          -0.4593    1.3854   28.1229 C.ar    1  UNL1        0.0154
     23 C          -1.3391    1.7155   26.9537 C.ar    1  UNL1        0.0013
     24 C          -1.4642    3.1353   26.4865 C.ar    1  UNL1        0.0001
     25 C          -0.7095    4.2251   27.1885 C.ar    1  UNL1        0.0013
     26 C           0.1703    3.8950   28.3577 C.ar    1  UNL1        0.0154
     27 C          -2.3440    3.4654   25.3173 C.ar    1  UNL1        0.0015
     28 C          -1.7525    3.5861   23.9442 C.ar    1  UNL1        0.0006
     29 C          -2.6323    3.9162   22.7749 C.ar    1  UNL1        0.0080
     30 C          -4.1036    4.1255   22.9789 C.ar    1  UNL1        0.0485
     31 S          -5.2117    4.4590   22.0246 S.2     1  UNL1       -0.0645
     32 C          -6.4880    4.5444   22.8079 C.ar    1  UNL1        0.1345
     33 N          -6.1687    4.2636   24.2463 N.ar    1  UNL1       -0.2363
     34 C          -4.6950    4.0047   24.3521 C.ar    1  UNL1        0.0879
     35 C          -3.8152    3.6747   25.5213 C.ar    1  UNL1        0.0196
     36 C           3.0472    3.1603   36.5041 C.3     1  UNL1        0.1183
     37 C           4.0272    0.5860   37.6926 C.3     1  UNL1        0.0323
     38 C           2.7605    1.2110   38.1976 C.ar    1  UNL1       -0.0069
     39 C           1.9839    0.5489   39.2968 C.ar    1  UNL1       -0.0015
     40 C           0.7173    1.1739   39.8019 C.ar    1  UNL1        0.0203
     41 C           0.2273    2.4610   39.2076 C.ar    1  UNL1        0.0985
     42 N           1.0039    3.1232   38.1083 N.ar    1  UNL1       -0.2471
     43 C           2.2705    2.4982   37.6033 C.ar    1  UNL1        0.0712
@<TRIPOS>BOND
     1    37    38    1
     2    38    39   ar
     3    39    40   ar
     4    40    41   ar
     5    41    42   ar
     6    42    43   ar
     7    43    36    1
     8    36     1    1
     9     1     2    1
    10     2     3    1
    11     3     4    1
    12     4     5    1
    13     5     6    1
    14     4     7    1
    15     7     8    2
    16     7     9   am
    17     9    21    1
    18    21    22   ar
    19    22    23   ar
    20    23    24   ar
    21    24    27    1
    22    27    28   ar
    23    28    29   ar
    24    29    30   ar
    25    30    31   ar
    26    31    32   ar
    27    32    33   ar
    28    33    34   ar
    29    34    35   ar
    30    24    25   ar
    31    25    26   ar
    32     9    10   am
    33    10    11    2
    34    10    12   am
    35    12    13    1
    36    13    14   ar
    37    14    15   ar
    38    15    16    1
    39    15    17   ar
    40    17    18   ar
    41    18    19   ar
    42    43    38   ar
    43     6     1    1
    44    26    21   ar
    45    19    13   ar
    46    12     4    1
    47    35    27   ar
    48    34    30   ar
    49    16    20    1
@<TRIPOS>MOLECULE
*****
 43 49 0 0 0
SMALL
GASTEIGER

@<TRIPOS>ATOM
      1 N           4.4056    0.6387   35.4341 N.3     1  UNL1       -0.2676
      2 C           5.1542   -0.2590   34.4941 C.3     1  UNL1        0.0746
      3 C           4.7388   -0.3526   33.0559 C.3     1  UNL1        0.0449
      4 C           3.5747    0.4515   32.5576 C.3     1  UNL1        0.1391
      5 C           2.8261    1.3493   33.4975 C.3     1  UNL1        0.0449
      6 C           3.2416    1.4429   34.9358 C.3     1  UNL1        0.0746
      7 C           2.4371    1.1915   31.9185 C.2     1  UNL1        0.2529
      8 O           1.5153    2.1550   32.6054 O.2     1  UNL1       -0.2724
      9 N           2.3832    0.7988   30.4717 N.am    1  UNL1       -0.1907
     10 C           3.4875   -0.1839   30.2167 C.2     1  UNL1        0.3219
     11 O           3.8005   -0.8372   28.9033 O.2     1  UNL1       -0.2512
     12 N           4.2239   -0.3985   31.5058 N.am    1  UNL1       -0.2222
     13 C           5.4024   -1.3041   31.7078 C.ar    1  UNL1        0.1453
     14 C           5.1925   -2.7188   32.1601 C.ar    1  UNL1        0.0922
     15 C           6.3712   -3.6243   32.3620 C.ar    1  UNL1        0.2259
     16 O           6.1612   -5.0390   32.8143 O.3     1  UNL1       -0.4919
     17 N           7.7598   -3.1152   32.1117 N.ar    1  UNL1       -0.1894
     18 C           7.9697   -1.7005   31.6594 C.ar    1  UNL1        0.2027
     19 N           6.7911   -0.7950   31.4575 N.ar    1  UNL1       -0.2084
     20 H           5.2938   -5.3570   32.9706 H       1  UNL1        0.2938
     21 C           1.3981    1.3006   29.4580 C.ar    1  UNL1        0.0622
     22 C           0.3992    0.3593   28.8530 C.ar    1  UNL1        0.0154
     23 C          -0.5859    0.8612   27.8393 C.ar    1  UNL1        0.0013
     24 C          -0.5722    2.3043   27.4307 C.ar    1  UNL1        0.0001
     25 C           0.4267    3.2457   28.0357 C.ar    1  UNL1        0.0013
     26 C           1.4118    2.7438   29.0494 C.ar    1  UNL1        0.0154
     27 C          -1.5574    2.8062   26.4170 C.ar    1  UNL1        0.0015
     28 C          -1.1878    2.8375   24.9636 C.ar    1  UNL1        0.0006
     29 C          -2.1730    3.3394   23.9498 C.ar    1  UNL1        0.0080
     30 C          -3.5278    3.8099   24.3895 C.ar    1  UNL1        0.0485
     31 S          -4.6984    4.3534   23.6252 S.2     1  UNL1       -0.0645
     32 C          -5.7914    4.6580   24.6063 C.ar    1  UNL1        0.1345
     33 N          -5.2963    4.3027   25.9769 N.ar    1  UNL1       -0.2363
     34 C          -3.8973    3.7785   25.8430 C.ar    1  UNL1        0.0879
     35 C          -2.9121    3.2766   26.8567 C.ar    1  UNL1        0.0196
     36 C           4.8211    0.7324   36.8724 C.3     1  UNL1        0.1183
     37 C           2.3941    0.9615   38.6209 C.3     1  UNL1        0.0323
     38 C           3.3562    2.1078   38.5194 C.ar    1  UNL1       -0.0069
     39 C           3.1048    3.3686   39.2921 C.ar    1  UNL1       -0.0015
     40 C           4.0670    4.5149   39.1905 C.ar    1  UNL1        0.0203
     41 C           5.2804    4.4004   38.3163 C.ar    1  UNL1        0.0985
     42 N           5.5319    3.1395   37.5436 N.ar    1  UNL1       -0.2471
     43 C           4.5697    1.9932   37.6451 C.ar    1  UNL1        0.0712
@<TRIPOS>BOND
     1    37    38    1
     2    38    39   ar
     3    39    40   ar
     4    40    41   ar
     5    41    42   ar
     6    42    43   ar
     7    43    36    1
     8    36     1    1
     9     1     2    1
    10     2     3    1
    11     3     4    1
    12     4     5    1
    13     5     6    1
    14     4     7    1
    15     7     8    2
    16     7     9   am
    17     9    21    1
    18    21    22   ar
    19    22    23   ar
    20    23    24   ar
    21    24    27    1
    22    27    28   ar
    23    28    29   ar
    24    29    30   ar
    25    30    31   ar
    26    31    32   ar
    27    32    33   ar
    28    33    34   ar
    29    34    35   ar
    30    24    25   ar
    31    25    26   ar
    32     9    10   am
    33    10    11    2
    34    10    12   am
    35    12    13    1
    36    13    14   ar
    37    14    15   ar
    38    15    16    1
    39    15    17   ar
    40    17    18   ar
    41    18    19   ar
    42    43    38   ar
    43     6     1    1
    44    26    21   ar
    45    19    13   ar
    46    12     4    1
    47    35    27   ar
    48    34    30   ar
    49    16    20    1
@<TRIPOS>MOLECULE
*****
 43 49 0 0 0
SMALL
GASTEIGER

@<TRIPOS>ATOM
      1 N           6.6128   -2.7100   23.9276 N.3     1  UNL1       -0.2676
      2 C           6.2117   -2.6200   22.4850 C.3     1  UNL1        0.0746
      3 C           4.9981   -1.8311   22.0918 C.3     1  UNL1        0.0449
      4 C           4.1855   -1.1322   23.1412 C.3     1  UNL1        0.1391
      5 C           4.5865   -1.2223   24.5838 C.3     1  UNL1        0.0449
      6 C           5.8001   -2.0112   24.9770 C.3     1  UNL1        0.0746
      7 C           3.2798   -0.3842   24.0741 C.2     1  UNL1        0.2529
      8 O           3.4288   -0.2936   25.5639 O.2     1  UNL1       -0.2724
      9 N           2.1989    0.2576   23.2555 N.am    1  UNL1       -0.1907
     10 C           2.4366   -0.0940   21.8167 C.2     1  UNL1        0.3219
     11 O           1.5944    0.3376   20.6530 O.2     1  UNL1       -0.2512
     12 N           3.6643   -0.9529   21.7461 N.am    1  UNL1       -0.2222
     13 C           4.2653   -1.5310   20.4993 C.ar    1  UNL1        0.1453
     14 C           3.9090   -2.9236   20.0709 C.ar    1  UNL1        0.0922
     15 C           4.5102   -3.5017   18.8241 C.ar    1  UNL1        0.2259
     16 O           4.1539   -4.8943   18.3957 O.3     1  UNL1       -0.4919
     17 N           5.4676   -2.6871   18.0057 N.ar    1  UNL1       -0.1894
     18 C           5.8239   -1.2944   18.4341 C.ar    1  UNL1        0.2027
     19 N           5.2228   -0.7164   19.6809 N.ar    1  UNL1       -0.2084
     20 H           3.5558   -5.4032   18.9069 H       1  UNL1        0.2938
     21 C           1.0773    1.1024   23.7830 C.ar    1  UNL1        0.0622
     22 C           0.5431    0.8624   25.1639 C.ar    1  UNL1        0.0154
     23 C          -0.5785    1.7073   25.6914 C.ar    1  UNL1        0.0013
     24 C          -1.1658    2.7921   24.8382 C.ar    1  UNL1        0.0001
     25 C          -0.6315    3.0321   23.4572 C.ar    1  UNL1        0.0013
     26 C           0.4901    2.1872   22.9297 C.ar    1  UNL1        0.0154
     27 C          -2.2873    3.6369   25.3657 C.ar    1  UNL1        0.0015
     28 C          -2.0774    4.4863   26.5840 C.ar    1  UNL1        0.0006
     29 C          -3.1990    5.3312   27.1117 C.ar    1  UNL1        0.0080
     30 C          -4.5305    5.3266   26.4209 C.ar    1  UNL1        0.0485
     31 S          -5.8126    6.0505   26.7077 S.2     1  UNL1       -0.0645
     32 C          -6.8148    5.6484   25.6667 C.ar    1  UNL1        0.1345
     33 N          -6.1521    4.6760   24.7365 N.ar    1  UNL1       -0.2363
     34 C          -4.7404    4.4771   25.2025 C.ar    1  UNL1        0.0879
     35 C          -3.6188    3.6323   24.6749 C.ar    1  UNL1        0.0196
     36 C           7.8265   -3.4989   24.3208 C.3     1  UNL1        0.1183
     37 C           8.8387   -5.8131   22.7022 C.3     1  UNL1        0.0323
     38 C           8.1820   -6.0560   24.0287 C.ar    1  UNL1       -0.0069
     39 C           8.0315   -7.4559   24.5459 C.ar    1  UNL1       -0.0015
     40 C           7.3747   -7.6987   25.8725 C.ar    1  UNL1        0.0203
     41 C           6.8686   -6.5417   26.6818 C.ar    1  UNL1        0.0985
     42 N           7.0192   -5.1417   26.1646 N.ar    1  UNL1       -0.2471
     43 C           7.6759   -4.8988   24.8380 C.ar    1  UNL1        0.0712
@<TRIPOS>BOND
     1    37    38    1
     2    38    39   ar
     3    39    40   ar
     4    40    41   ar
     5    41    42   ar
     6    42    43   ar
     7    43    36    1
     8    36     1    1
     9     1     2    1
    10     2     3    1
    11     3     4    1
    12     4     5    1
    13     5     6    1
    14     4     7    1
    15     7     8    2
    16     7     9   am
    17     9    21    1
    18    21    22   ar
    19    22    23   ar
    20    23    24   ar
    21    24    27    1
    22    27    28   ar
    23    28    29   ar
    24    29    30   ar
    25    30    31   ar
    26    31    32   ar
    27    32    33   ar
    28    33    34   ar
    29    34    35   ar
    30    24    25   ar
    31    25    26   ar
    32     9    10   am
    33    10    11    2
    34    10    12   am
    35    12    13    1
    36    13    14   ar
    37    14    15   ar
    38    15    16    1
    39    15    17   ar
    40    17    18   ar
    41    18    19   ar
    42    43    38   ar
    43     6     1    1
    44    26    21   ar
    45    19    13   ar
    46    12     4    1
    47    35    27   ar
    48    34    30   ar
    49    16    20    1
@<TRIPOS>MOLECULE
*****
 43 49 0 0 0
SMALL
GASTEIGER

@<TRIPOS>ATOM
      1 N           2.5682   -0.2542   29.9981 N.3     1  UNL1       -0.2676
      2 C           3.8674   -0.9872   30.1552 C.3     1  UNL1        0.0746
      3 C           4.6740   -0.8236   31.4092 C.3     1  UNL1        0.0449
      4 C           4.1815    0.0732   32.5061 C.3     1  UNL1        0.1391
      5 C           2.8823    0.8063   32.3490 C.3     1  UNL1        0.0449
      6 C           2.0757    0.6426   31.0950 C.3     1  UNL1        0.0746
      7 C           3.8187    0.9307   33.6822 C.2     1  UNL1        0.2529
      8 O           2.5856    1.7751   33.8107 O.2     1  UNL1       -0.2724
      9 N           4.9056    0.7956   34.7072 N.am    1  UNL1       -0.1907
     10 C           5.9401   -0.1454   34.1646 C.2     1  UNL1        0.3219
     11 O           7.2006   -0.5661   34.8601 O.2     1  UNL1       -0.2512
     12 N           5.4925   -0.5919   32.8043 N.am    1  UNL1       -0.2222
     13 C           6.2270   -1.5374   31.9007 C.ar    1  UNL1        0.1453
     14 C           6.0607   -3.0185   32.0702 C.ar    1  UNL1        0.0922
     15 C           6.7953   -3.9639   31.1666 C.ar    1  UNL1        0.2259
     16 O           6.6290   -5.4450   31.3361 O.3     1  UNL1       -0.4919
     17 N           7.6962   -3.4284   30.0934 N.ar    1  UNL1       -0.1894
     18 C           7.8625   -1.9473   29.9239 C.ar    1  UNL1        0.2027
     19 N           7.1279   -1.0018   30.8275 N.ar    1  UNL1       -0.2084
     20 H           6.0662   -5.7796   32.0064 H       1  UNL1        0.2938
     21 C           4.9502    1.4811   36.0406 C.ar    1  UNL1        0.0622
     22 C           4.2609    0.8672   37.2229 C.ar    1  UNL1        0.0154
     23 C           4.3055    1.5527   38.5564 C.ar    1  UNL1        0.0013
     24 C           5.0393    2.8522   38.7075 C.ar    1  UNL1        0.0001
     25 C           5.7286    3.4661   37.5251 C.ar    1  UNL1        0.0013
     26 C           5.6840    2.7806   36.1917 C.ar    1  UNL1        0.0154
     27 C           5.0838    3.5377   40.0409 C.ar    1  UNL1        0.0015
     28 C           6.2732    3.3581   40.9371 C.ar    1  UNL1        0.0006
     29 C           6.3178    4.0437   42.2706 C.ar    1  UNL1        0.0080
     30 C           5.1730    4.9088   42.7078 C.ar    1  UNL1        0.0485
     31 S           4.9364    5.7047   43.9570 S.2     1  UNL1       -0.0645
     32 C           3.6009    6.3762   43.8328 C.ar    1  UNL1        0.1345
     33 N           3.0121    5.9952   42.5069 N.ar    1  UNL1       -0.2363
     34 C           3.9836    5.0883   41.8115 C.ar    1  UNL1        0.0879
     35 C           3.9391    4.4028   40.4781 C.ar    1  UNL1        0.0196
     36 C           1.7615   -0.4178   28.7441 C.3     1  UNL1        0.1183
     37 C          -1.2385   -0.4286   28.7425 C.3     1  UNL1        0.0323
     38 C          -0.4924    0.7442   28.1788 C.ar    1  UNL1       -0.0069
     39 C          -1.2463    1.9116   27.6142 C.ar    1  UNL1       -0.0015
     40 C          -0.5002    3.0845   27.0505 C.ar    1  UNL1        0.0203
     41 C           0.9997    3.0899   27.0513 C.ar    1  UNL1        0.0985
     42 N           1.7537    1.9225   27.6158 N.ar    1  UNL1       -0.2471
     43 C           1.0076    0.7496   28.1796 C.ar    1  UNL1        0.0712
@<TRIPOS>BOND
     1    37    38    1
     2    38    39   ar
     3    39    40   ar
     4    40    41   ar
     5    41    42   ar
     6    42    43   ar
     7    43    36    1
     8    36     1    1
     9     1     2    1
    10     2     3    1
    11     3     4    1
    12     4     5    1
    13     5     6    1
    14     4     7    1
    15     7     8    2
    16     7     9   am
    17     9    21    1
    18    21    22   ar
    19    22    23   ar
    20    23    24   ar
    21    24    27    1
    22    27    28   ar
    23    28    29   ar
    24    29    30   ar
    25    30    31   ar
    26    31    32   ar
    27    32    33   ar
    28    33    34   ar
    29    34    35   ar
    30    24    25   ar
    31    25    26   ar
    32     9    10   am
    33    10    11    2
    34    10    12   am
    35    12    13    1
    36    13    14   ar
    37    14    15   ar
    38    15    16    1
    39    15    17   ar
    40    17    18   ar
    41    18    19   ar
    42    43    38   ar
    43     6     1    1
    44    26    21   ar
    45    19    13   ar
    46    12     4    1
    47    35    27   ar
    48    34    30   ar
    49    16    20    1
@<TRIPOS>MOLECULE
*****
 43 49 0 0 0
SMALL
GASTEIGER

@<TRIPOS>ATOM
      1 N          -2.8774    3.8979   20.7190 N.3     1  UNL1       -0.2676
      2 C          -4.0154    4.4047   21.5544 C.3     1  UNL1        0.0746
      3 C          -3.9454    4.3160   23.0501 C.3     1  UNL1        0.0449
      4 C          -2.7374    3.7205   23.7104 C.3     1  UNL1        0.1391
      5 C          -1.5994    3.2136   22.8750 C.3     1  UNL1        0.0449
      6 C          -1.6694    3.3023   21.3793 C.3     1  UNL1        0.0746
      7 C          -1.6004    3.1534   24.5078 C.2     1  UNL1        0.2529
      8 O          -0.3339    2.5755   23.9494 O.2     1  UNL1       -0.2724
      9 N          -1.9524    3.2657   25.9616 N.am    1  UNL1       -0.1907
     10 C          -3.3070    3.9022   26.0627 C.2     1  UNL1        0.3219
     11 O          -4.0465    4.2045   27.3322 O.2     1  UNL1       -0.2512
     12 N          -3.7921    4.1833   24.6715 N.am    1  UNL1       -0.2222
     13 C          -5.1019    4.8160   24.3054 C.ar    1  UNL1        0.1453
     14 C          -6.3114    3.9585   24.0778 C.ar    1  UNL1        0.0922
     15 C          -7.6212    4.5914   23.7117 C.ar    1  UNL1        0.2259
     16 O          -8.8308    3.7339   23.4841 O.3     1  UNL1       -0.4919
     17 N          -7.7215    6.0816   23.5732 N.ar    1  UNL1       -0.1894
     18 C          -6.5120    6.9390   23.8008 C.ar    1  UNL1        0.2027
     19 N          -5.2022    6.3062   24.1669 N.ar    1  UNL1       -0.2084
     20 H          -8.7681    2.8030   23.5706 H       1  UNL1        0.2938
     21 C          -1.0997    2.8198   27.1122 C.ar    1  UNL1        0.0622
     22 C          -0.1488    3.7832   27.7585 C.ar    1  UNL1        0.0154
     23 C           0.7039    3.3373   28.9092 C.ar    1  UNL1        0.0013
     24 C           0.6059    1.9281   29.4135 C.ar    1  UNL1        0.0001
     25 C          -0.3450    0.9647   28.7671 C.ar    1  UNL1        0.0013
     26 C          -1.1978    1.4106   27.6165 C.ar    1  UNL1        0.0154
     27 C           1.4587    1.4822   30.5641 C.ar    1  UNL1        0.0015
     28 C           1.4482    2.2557   31.8493 C.ar    1  UNL1        0.0006
     29 C           2.3010    1.8098   33.0000 C.ar    1  UNL1        0.0080
     30 C           3.1643    0.5905   32.8654 C.ar    1  UNL1        0.0485
     31 S           4.1033   -0.0848   33.8205 S.2     1  UNL1       -0.0645
     32 C           4.6941   -1.2756   33.1256 C.ar    1  UNL1        0.1345
     33 N           4.1202   -1.3362   31.7410 N.ar    1  UNL1       -0.2363
     34 C           3.1747   -0.1829   31.5802 C.ar    1  UNL1        0.0879
     35 C           2.3219    0.2629   30.4295 C.ar    1  UNL1        0.0196
     36 C          -2.9474    3.9866   19.2232 C.3     1  UNL1        0.1183
     37 C          -5.7812    3.2117   18.6156 C.3     1  UNL1        0.0323
     38 C          -5.2886    4.5854   18.2690 C.ar    1  UNL1       -0.0069
     39 C          -6.2128    5.5716   17.6186 C.ar    1  UNL1       -0.0015
     40 C          -5.7201    6.9454   17.2719 C.ar    1  UNL1        0.0203
     41 C          -4.3033    7.3329   17.5757 C.ar    1  UNL1        0.0985
     42 N          -3.3790    6.3466   18.2261 N.ar    1  UNL1       -0.2471
     43 C          -3.8716    4.9728   18.5728 C.ar    1  UNL1        0.0712
@<TRIPOS>BOND
     1    37    38    1
     2    38    39   ar
     3    39    40   ar
     4    40    41   ar
     5    41    42   ar
     6    42    43   ar
     7    43    36    1
     8    36     1    1
     9     1     2    1
    10     2     3    1
    11     3     4    1
    12     4     5    1
    13     5     6    1
    14     4     7    1
    15     7     8    2
    16     7     9   am
    17     9    21    1
    18    21    22   ar
    19    22    23   ar
    20    23    24   ar
    21    24    27    1
    22    27    28   ar
    23    28    29   ar
    24    29    30   ar
    25    30    31   ar
    26    31    32   ar
    27    32    33   ar
    28    33    34   ar
    29    34    35   ar
    30    24    25   ar
    31    25    26   ar
    32     9    10   am
    33    10    11    2
    34    10    12   am
    35    12    13    1
    36    13    14   ar
    37    14    15   ar
    38    15    16    1
    39    15    17   ar
    40    17    18   ar
    41    18    19   ar
    42    43    38   ar
    43     6     1    1
    44    26    21   ar
    45    19    13   ar
    46    12     4    1
    47    35    27   ar
    48    34    30   ar
    49    16    20    1
@<TRIPOS>MOLECULE
*****
 43 49 0 0 0
SMALL
GASTEIGER

@<TRIPOS>ATOM
      1 N           6.2765   -2.1415   24.1711 N.3     1  UNL1       -0.2676
      2 C           6.8536   -3.3801   24.7898 C.3     1  UNL1        0.0746
      3 C           6.8353   -3.5526   26.2797 C.3     1  UNL1        0.0449
      4 C           6.2397   -2.4865   27.1509 C.3     1  UNL1        0.1391
      5 C           5.6626   -1.2480   26.5321 C.3     1  UNL1        0.0449
      6 C           5.6809   -1.0755   25.0422 C.3     1  UNL1        0.0746
      7 C           5.6812   -1.5115   28.1446 C.2     1  UNL1        0.2529
      8 O           5.0430   -0.1927   27.8227 O.2     1  UNL1       -0.2724
      9 N           5.8730   -2.0867   29.5166 N.am    1  UNL1       -0.1907
     10 C           6.5501   -3.4173   29.3709 C.2     1  UNL1        0.3219
     11 O           6.9332   -4.3389   30.4905 O.2     1  UNL1       -0.2512
     12 N           6.7767   -3.6644   27.9088 N.am    1  UNL1       -0.2222
     13 C           7.4263   -4.8765   27.3098 C.ar    1  UNL1        0.1453
     14 C           6.6302   -6.1316   27.1081 C.ar    1  UNL1        0.0922
     15 C           7.2798   -7.3437   26.5090 C.ar    1  UNL1        0.2259
     16 O           6.4837   -8.5989   26.3073 O.3     1  UNL1       -0.4919
     17 N           8.7256   -7.3006   26.1117 N.ar    1  UNL1       -0.1894
     18 C           9.5218   -6.0454   26.3134 C.ar    1  UNL1        0.2027
     19 N           8.8721   -4.8334   26.9124 N.ar    1  UNL1       -0.2084
     20 H           5.5806   -8.6258   26.5555 H       1  UNL1        0.2938
     21 C           5.4602   -1.4442   30.8076 C.ar    1  UNL1        0.0622
     22 C           6.4666   -1.2453   31.9018 C.ar    1  UNL1        0.0154
     23 C           6.0538   -0.6028   33.1929 C.ar    1  UNL1        0.0013
     24 C           4.6346   -0.1592   33.3897 C.ar    1  UNL1        0.0001
     25 C           3.6281   -0.3581   32.2954 C.ar    1  UNL1        0.0013
     26 C           4.0409   -1.0006   31.0044 C.ar    1  UNL1        0.0154
     27 C           4.2218    0.4833   34.6807 C.ar    1  UNL1        0.0015
     28 C           4.7720   -0.0242   35.9805 C.ar    1  UNL1        0.0006
     29 C           4.3592    0.6184   37.2717 C.ar    1  UNL1        0.0080
     30 C           3.3962    1.7684   37.2628 C.ar    1  UNL1        0.0485
     31 S           2.8107    2.5958   38.3685 S.2     1  UNL1       -0.0645
     32 C           1.8987    3.6146   37.7520 C.ar    1  UNL1        0.1345
     33 N           1.9205    3.4169   36.2653 N.ar    1  UNL1       -0.2363
     34 C           2.8459    2.2759   35.9628 C.ar    1  UNL1        0.0879
     35 C           3.2587    1.6334   34.6718 C.ar    1  UNL1        0.0196
     36 C           6.2948   -1.9690   22.6811 C.3     1  UNL1        0.1183
     37 C           5.4808   -3.7641   20.4194 C.3     1  UNL1        0.0323
     38 C           4.6095   -2.6071   20.8095 C.ar    1  UNL1       -0.0069
     39 C           3.3313   -2.3476   20.0687 C.ar    1  UNL1       -0.0015
     40 C           2.4601   -1.1905   20.4588 C.ar    1  UNL1        0.0203
     41 C           2.8670   -0.2930   21.5896 C.ar    1  UNL1        0.0985
     42 N           4.1453   -0.5525   22.3304 N.ar    1  UNL1       -0.2471
     43 C           5.0166   -1.7095   21.9404 C.ar    1  UNL1        0.0712
@<TRIPOS>BOND
     1    37    38    1
     2    38    39   ar
     3    39    40   ar
     4    40    41   ar
     5    41    42   ar
     6    42    43   ar
     7    43    36    1
     8    36     1    1
     9     1     2    1
    10     2     3    1
    11     3     4    1
    12     4     5    1
    13     5     6    1
    14     4     7    1
    15     7     8    2
    16     7     9   am
    17     9    21    1
    18    21    22   ar
    19    22    23   ar
    20    23    24   ar
    21    24    27    1
    22    27    28   ar
    23    28    29   ar
    24    29    30   ar
    25    30    31   ar
    26    31    32   ar
    27    32    33   ar
    28    33    34   ar
    29    34    35   ar
    30    24    25   ar
    31    25    26   ar
    32     9    10   am
    33    10    11    2
    34    10    12   am
    35    12    13    1
    36    13    14   ar
    37    14    15   ar
    38    15    16    1
    39    15    17   ar
    40    17    18   ar
    41    18    19   ar
    42    43    38   ar
    43     6     1    1
    44    26    21   ar
    45    19    13   ar
    46    12     4    1
    47    35    27   ar
    48    34    30   ar
    49    16    20    1
@<TRIPOS>MOLECULE
*****
 43 49 0 0 0
SMALL
GASTEIGER

@<TRIPOS>ATOM
      1 N           6.3646   -2.4718   24.9368 N.3     1  UNL1       -0.2676
      2 C           6.0774   -2.5905   23.4694 C.3     1  UNL1        0.0746
      3 C           4.9050   -1.8689   22.8739 C.3     1  UNL1        0.0449
      4 C           4.0198   -1.0286   23.7458 C.3     1  UNL1        0.1391
      5 C           4.3070   -0.9098   25.2132 C.3     1  UNL1        0.0449
      6 C           5.4794   -1.6314   25.8087 C.3     1  UNL1        0.0746
      7 C           3.0513   -0.1564   24.4884 C.2     1  UNL1        0.2529
      8 O           3.0853    0.1472   25.9570 O.2     1  UNL1       -0.2724
      9 N           2.0429    0.3588   23.5047 N.am    1  UNL1       -0.1907
     10 C           2.3881   -0.1950   22.1540 C.2     1  UNL1        0.3219
     11 O           1.6426    0.0633   20.8784 O.2     1  UNL1       -0.2512
     12 N           3.6099   -1.0524   22.3030 N.am    1  UNL1       -0.2222
     13 C           4.3005   -1.8020   21.2026 C.ar    1  UNL1        0.1453
     14 C           3.9105   -3.2185   20.9003 C.ar    1  UNL1        0.0922
     15 C           4.6012   -3.9681   19.7999 C.ar    1  UNL1        0.2259
     16 O           4.2112   -5.3846   19.4976 O.3     1  UNL1       -0.4919
     17 N           5.6820   -3.3012   19.0016 N.ar    1  UNL1       -0.1894
     18 C           6.0721   -1.8847   19.3038 C.ar    1  UNL1        0.2027
     19 N           5.3813   -1.1351   20.4043 N.ar    1  UNL1       -0.2084
     20 H           3.5361   -5.8012   19.9963 H       1  UNL1        0.2938
     21 C           0.8914    1.2680   23.8167 C.ar    1  UNL1        0.0622
     22 C           0.4160    2.2549   22.7921 C.ar    1  UNL1        0.0154
     23 C          -0.7354    3.1642   23.1042 C.ar    1  UNL1        0.0013
     24 C          -1.4115    3.0865   24.4409 C.ar    1  UNL1        0.0001
     25 C          -0.9360    2.0996   25.4656 C.ar    1  UNL1        0.0013
     26 C           0.2154    1.1903   25.1535 C.ar    1  UNL1        0.0154
     27 C          -2.5629    3.9958   24.7530 C.ar    1  UNL1        0.0015
     28 C          -3.1086    4.9058   23.6928 C.ar    1  UNL1        0.0006
     29 C          -4.2601    5.8151   24.0049 C.ar    1  UNL1        0.0080
     30 C          -4.8658    5.8143   25.3771 C.ar    1  UNL1        0.0485
     31 S          -5.9993    6.5944   25.9744 S.2     1  UNL1       -0.0645
     32 C          -6.1541    6.1665   27.4036 C.ar    1  UNL1        0.1345
     33 N          -5.1163    5.1219   27.6898 N.ar    1  UNL1       -0.2363
     34 C          -4.3200    4.9042   26.4374 C.ar    1  UNL1        0.0879
     35 C          -3.1686    3.9950   26.1253 C.ar    1  UNL1        0.0196
     36 C           7.5371   -3.1934   25.5324 C.3     1  UNL1        0.1183
     37 C           6.3766   -4.8557   27.7437 C.3     1  UNL1        0.0323
     38 C           7.0304   -5.5212   26.5690 C.ar    1  UNL1       -0.0069
     39 C           7.1038   -7.0177   26.5001 C.ar    1  UNL1       -0.0015
     40 C           7.7576   -7.6832   25.3254 C.ar    1  UNL1        0.0203
     41 C           8.3379   -6.8521   24.2198 C.ar    1  UNL1        0.0985
     42 N           8.2644   -5.3554   24.2887 N.ar    1  UNL1       -0.2471
     43 C           7.6106   -4.6899   25.4634 C.ar    1  UNL1        0.0712
@<TRIPOS>BOND
     1    37    38    1
     2    38    39   ar
     3    39    40   ar
     4    40    41   ar
     5    41    42   ar
     6    42    43   ar
     7    43    36    1
     8    36     1    1
     9     1     2    1
    10     2     3    1
    11     3     4    1
    12     4     5    1
    13     5     6    1
    14     4     7    1
    15     7     8    2
    16     7     9   am
    17     9    21    1
    18    21    22   ar
    19    22    23   ar
    20    23    24   ar
    21    24    27    1
    22    27    28   ar
    23    28    29   ar
    24    29    30   ar
    25    30    31   ar
    26    31    32   ar
    27    32    33   ar
    28    33    34   ar
    29    34    35   ar
    30    24    25   ar
    31    25    26   ar
    32     9    10   am
    33    10    11    2
    34    10    12   am
    35    12    13    1
    36    13    14   ar
    37    14    15   ar
    38    15    16    1
    39    15    17   ar
    40    17    18   ar
    41    18    19   ar
    42    43    38   ar
    43     6     1    1
    44    26    21   ar
    45    19    13   ar
    46    12     4    1
    47    35    27   ar
    48    34    30   ar
    49    16    20    1
@<TRIPOS>MOLECULE
*****
 43 49 0 0 0
SMALL
GASTEIGER

@<TRIPOS>ATOM
      1 N           6.5065   -2.1676   28.8367 N.3     1  UNL1       -0.2676
      2 C           6.0714   -1.8089   30.2267 C.3     1  UNL1        0.0746
      3 C           4.8256   -1.0005   30.4374 C.3     1  UNL1        0.0449
      4 C           4.0150   -0.5507   29.2582 C.3     1  UNL1        0.1391
      5 C           4.4501   -0.9094   27.8683 C.3     1  UNL1        0.0449
      6 C           5.6959   -1.7178   27.6575 C.3     1  UNL1        0.0746
      7 C           3.1073   -0.0330   28.1821 C.2     1  UNL1        0.2529
      8 O           3.2861   -0.2327   26.7062 O.2     1  UNL1       -0.2724
      9 N           1.9894    0.7196   28.8409 N.am    1  UNL1       -0.1907
     10 C           2.2062    0.6670   30.3243 C.2     1  UNL1        0.3219
     11 O           1.3258    1.2901   31.3666 O.2     1  UNL1       -0.2512
     12 N           3.4580   -0.1181   30.5822 N.am    1  UNL1       -0.2222
     13 C           4.0492   -0.4180   31.9277 C.ar    1  UNL1        0.1453
     14 C           4.9603    0.5759   32.5851 C.ar    1  UNL1        0.0922
     15 C           5.5515    0.2759   33.9306 C.ar    1  UNL1        0.2259
     16 O           6.4626    1.2698   34.5880 O.3     1  UNL1       -0.4919
     17 N           5.2316   -1.0180   34.6189 N.ar    1  UNL1       -0.1894
     18 C           4.3205   -2.0118   33.9616 C.ar    1  UNL1        0.2027
     19 N           3.7294   -1.7118   32.6160 N.ar    1  UNL1       -0.2084
     20 H           6.6624    2.0780   34.1581 H       1  UNL1        0.2938
     21 C           0.8541    1.4046   28.1396 C.ar    1  UNL1        0.0622
     22 C           1.1305    2.5297   27.1870 C.ar    1  UNL1        0.0154
     23 C          -0.0048    3.2147   26.4856 C.ar    1  UNL1        0.0013
     24 C          -1.4165    2.7745   26.7369 C.ar    1  UNL1        0.0001
     25 C          -1.6929    1.6493   27.6895 C.ar    1  UNL1        0.0013
     26 C          -0.5576    0.9643   28.3909 C.ar    1  UNL1        0.0154
     27 C          -2.5518    3.4594   26.0355 C.ar    1  UNL1        0.0015
     28 C          -2.5864    3.5099   24.5368 C.ar    1  UNL1        0.0006
     29 C          -3.7217    4.1949   23.8354 C.ar    1  UNL1        0.0080
     30 C          -4.8225    4.8294   24.6328 C.ar    1  UNL1        0.0485
     31 S          -6.0609    5.5695   24.2224 S.2     1  UNL1       -0.0645
     32 C          -6.7917    5.9764   25.4674 C.ar    1  UNL1        0.1345
     33 N          -6.0049    5.4878   26.6473 N.ar    1  UNL1       -0.2363
     34 C          -4.7878    4.7789   26.1316 C.ar    1  UNL1        0.0879
     35 C          -3.6525    4.0940   26.8329 C.ar    1  UNL1        0.0196
     36 C           7.7524   -2.9760   28.6259 C.3     1  UNL1        0.1183
     37 C           6.9407   -5.7141   29.5447 C.3     1  UNL1        0.0323
     38 C           7.3424   -5.4905   28.1169 C.ar    1  UNL1       -0.0069
     39 C           7.3382   -6.6360   27.1485 C.ar    1  UNL1       -0.0015
     40 C           7.7400   -6.4125   25.7207 C.ar    1  UNL1        0.0203
     41 C           8.1458   -5.0435   25.2613 C.ar    1  UNL1        0.0985
     42 N           8.1499   -3.8979   26.2297 N.ar    1  UNL1       -0.2471
     43 C           7.7482   -4.1215   27.6575 C.ar    1  UNL1        0.0712
@<TRIPOS>BOND
     1    37    38    1
     2    38    39   ar
     3    39    40   ar
     4    40    41   ar
     5    41    42   ar
     6    42    43   ar
     7    43    36    1
     8    36     1    1
     9     1     2    1
    10     2     3    1
    11     3     4    1
    12     4     5    1
    13     5     6    1
    14     4     7    1
    15     7     8    2
    16     7     9   am
    17     9    21    1
    18    21    22   ar
    19    22    23   ar
    20    23    24   ar
    21    24    27    1
    22    27    28   ar
    23    28    29   ar
    24    29    30   ar
    25    30    31   ar
    26    31    32   ar
    27    32    33   ar
    28    33    34   ar
    29    34    35   ar
    30    24    25   ar
    31    25    26   ar
    32     9    10   am
    33    10    11    2
    34    10    12   am
    35    12    13    1
    36    13    14   ar
    37    14    15   ar
    38    15    16    1
    39    15    17   ar
    40    17    18   ar
    41    18    19   ar
    42    43    38   ar
    43     6     1    1
    44    26    21   ar
    45    19    13   ar
    46    12     4    1
    47    35    27   ar
    48    34    30   ar
    49    16    20    1
