@<TRIPOS>MOLECULE
*****
 24 26 0 0 0
SMALL
GASTEIGER

@<TRIPOS>ATOM
      1 C          -4.4747  -19.8837   20.9269 C.3     1  UNL1        0.0838
      2 C          -5.3797  -20.0571   19.7433 C.3     1  UNL1        0.0437
      3 C          -6.7842  -19.7755   20.1886 C.ar    1  UNL1       -0.0247
      4 C          -8.0920  -19.7905   19.4542 C.ar    1  UNL1       -0.0045
      5 C          -9.3627  -19.4582   20.1785 C.ar    1  UNL1       -0.0003
      6 C          -9.3257  -19.1109   21.6373 C.ar    1  UNL1        0.0012
      7 C          -8.0179  -19.0958   22.3717 C.ar    1  UNL1       -0.0045
      8 C          -6.7471  -19.4281   21.6473 C.ar    1  UNL1       -0.0247
      9 C          -5.3198  -19.4950   22.1036 C.3     1  UNL1        0.0437
     10 C         -10.5965  -18.7785   22.3616 C.ar    1  UNL1        0.0193
     11 C         -11.7428  -18.1583   21.6192 C.ar    1  UNL1        0.0055
     12 C         -13.0136  -17.8259   22.3435 C.ar    1  UNL1        0.0497
     13 C         -13.1381  -18.1139   23.8103 C.ar    1  UNL1        0.2223
     14 F         -14.4088  -17.7816   24.5347 F       1  UNL1       -0.1832
     15 N         -11.9917  -18.7342   24.5528 N.ar    1  UNL1       -0.2165
     16 C         -10.7210  -19.0665   23.8285 C.ar    1  UNL1        0.1012
     17 N          -2.9859  -20.0669   20.9327 N.3     1  UNL1       -0.1841
     18 H          -2.7480  -20.5161   21.8170 H       1  UNL1        0.1484
     19 S          -2.0833  -18.8769   20.7948 S.O2    1  UNL1        0.0390
     20 O          -2.4539  -18.7636   19.3458 O.2     1  UNL1       -0.1576
     21 O          -1.7126  -18.9902   22.2439 O.2     1  UNL1       -0.1576
     22 C           0.1098  -17.8077   19.9019 C.3     1  UNL1        0.0270
     23 C          -1.1806  -17.6868   20.6570 C.3     1  UNL1        0.1457
     24 C          -1.5685  -16.3758   21.2741 C.3     1  UNL1        0.0270
@<TRIPOS>BOND
     1    22    23    1
     2    23    24    1
     3    23    19    1
     4    19    20    2
     5    19    21    2
     6    19    17    1
     7     1    17    1
     8     1     2    1
     9     2     3    1
    10     3     4   ar
    11     4     5   ar
    12     5     6   ar
    13     6    10    1
    14    10    11   ar
    15    11    12   ar
    16    12    13   ar
    17    13    14    1
    18    13    15   ar
    19    15    16   ar
    20     6     7   ar
    21     7     8   ar
    22     8     9    1
    23     9     1    1
    24     8     3   ar
    25    16    10   ar
    26    17    18    1
@<TRIPOS>MOLECULE
*****
 24 26 0 0 0
SMALL
GASTEIGER

@<TRIPOS>ATOM
      1 C          -4.0695  -17.9315   22.5552 C.3     1  UNL1        0.0838
      2 C          -4.5756  -19.2595   22.0754 C.3     1  UNL1        0.0437
      3 C          -6.0627  -19.2866   22.2698 C.ar    1  UNL1       -0.0247
      4 C          -7.0941  -20.3359   21.9780 C.ar    1  UNL1       -0.0045
      5 C          -8.5385  -20.0739   22.2863 C.ar    1  UNL1       -0.0003
      6 C          -8.9515  -18.7626   22.8863 C.ar    1  UNL1        0.0012
      7 C          -7.9201  -17.7134   23.1781 C.ar    1  UNL1       -0.0045
      8 C          -6.4757  -17.9754   22.8699 C.ar    1  UNL1       -0.0247
      9 C          -5.2438  -17.1379   23.0463 C.3     1  UNL1        0.0437
     10 C         -10.3960  -18.5007   23.1945 C.ar    1  UNL1        0.0193
     11 C         -11.0160  -19.0800   24.4314 C.ar    1  UNL1        0.0055
     12 C         -12.4604  -18.8181   24.7397 C.ar    1  UNL1        0.0497
     13 C         -13.2848  -17.9767   23.8110 C.ar    1  UNL1        0.2223
     14 F         -14.7292  -17.7147   24.1192 F       1  UNL1       -0.1832
     15 N         -12.6648  -17.3973   22.5740 N.ar    1  UNL1       -0.2165
     16 C         -11.2204  -17.6593   22.2659 C.ar    1  UNL1        0.1012
     17 N          -2.6400  -17.4770   22.5457 N.3     1  UNL1       -0.1841
     18 H          -2.6375  -16.5067   22.8602 H       1  UNL1        0.1484
     19 S          -1.8472  -17.5218   21.2732 S.O2    1  UNL1        0.0390
     20 O          -2.4280  -16.2004   20.8649 O.2     1  UNL1       -0.1576
     21 O          -1.2665  -18.8431   21.6815 O.2     1  UNL1       -0.1576
     22 C          -1.7517  -17.7790   18.6896 C.3     1  UNL1        0.0270
     23 C          -1.0544  -17.5665   20.0006 C.3     1  UNL1        0.1457
     24 C           0.4357  -17.3988   20.0390 C.3     1  UNL1        0.0270
@<TRIPOS>BOND
     1    22    23    1
     2    23    24    1
     3    23    19    1
     4    19    20    2
     5    19    21    2
     6    19    17    1
     7     1    17    1
     8     1     2    1
     9     2     3    1
    10     3     4   ar
    11     4     5   ar
    12     5     6   ar
    13     6    10    1
    14    10    11   ar
    15    11    12   ar
    16    12    13   ar
    17    13    14    1
    18    13    15   ar
    19    15    16   ar
    20     6     7   ar
    21     7     8   ar
    22     8     9    1
    23     9     1    1
    24     8     3   ar
    25    16    10   ar
    26    17    18    1
@<TRIPOS>MOLECULE
*****
 24 26 0 0 0
SMALL
GASTEIGER

@<TRIPOS>ATOM
      1 C          -8.9986  -18.4225   23.6024 C.3     1  UNL1        0.0838
      2 C          -8.8463  -19.6632   22.7735 C.3     1  UNL1        0.0437
      3 C          -7.4897  -19.6302   22.1344 C.ar    1  UNL1       -0.0247
      4 C          -6.7905  -20.5855   21.2133 C.ar    1  UNL1       -0.0045
      5 C          -5.4052  -20.2797   20.7263 C.ar    1  UNL1       -0.0003
      6 C          -4.7190  -19.0184   21.1603 C.ar    1  UNL1        0.0012
      7 C          -5.4182  -18.0630   22.0814 C.ar    1  UNL1       -0.0045
      8 C          -6.8035  -18.3689   22.5684 C.ar    1  UNL1       -0.0247
      9 C          -7.7361  -17.6225   23.4757 C.3     1  UNL1        0.0437
     10 C          -3.3336  -18.7125   20.6732 C.ar    1  UNL1        0.0193
     11 C          -3.1180  -18.2646   19.2580 C.ar    1  UNL1        0.0055
     12 C          -1.7326  -17.9588   18.7709 C.ar    1  UNL1        0.0497
     13 C          -0.5629  -18.1008   19.6991 C.ar    1  UNL1        0.2223
     14 F           0.8225  -17.7950   19.2121 F       1  UNL1       -0.1832
     15 N          -0.7785  -18.5487   21.1144 N.ar    1  UNL1       -0.2165
     16 C          -2.1639  -18.8546   21.6014 C.ar    1  UNL1        0.1012
     17 N         -10.2022  -18.0475   24.4154 N.3     1  UNL1       -0.1841
     18 H         -10.2709  -18.7289   25.1713 H       1  UNL1        0.1484
     19 S         -11.5536  -17.9811   23.7680 S.O2    1  UNL1        0.0390
     20 O         -11.0862  -16.8438   22.9089 O.2     1  UNL1       -0.1576
     21 O         -12.0210  -19.1184   24.6271 O.2     1  UNL1       -0.1576
     22 C         -13.0172  -17.7506   21.6338 C.3     1  UNL1        0.0270
     23 C         -12.9051  -17.9147   23.1205 C.3     1  UNL1        0.1457
     24 C         -14.1444  -18.0125   23.9598 C.3     1  UNL1        0.0270
@<TRIPOS>BOND
     1    22    23    1
     2    23    24    1
     3    23    19    1
     4    19    20    2
     5    19    21    2
     6    19    17    1
     7     1    17    1
     8     1     2    1
     9     2     3    1
    10     3     4   ar
    11     4     5   ar
    12     5     6   ar
    13     6    10    1
    14    10    11   ar
    15    11    12   ar
    16    12    13   ar
    17    13    14    1
    18    13    15   ar
    19    15    16   ar
    20     6     7   ar
    21     7     8   ar
    22     8     9    1
    23     9     1    1
    24     8     3   ar
    25    16    10   ar
    26    17    18    1
@<TRIPOS>MOLECULE
*****
 24 26 0 0 0
SMALL
GASTEIGER

@<TRIPOS>ATOM
      1 C          -9.8652  -19.3638   21.1722 C.3     1  UNL1        0.0838
      2 C          -9.1190  -20.1868   22.1800 C.3     1  UNL1        0.0437
      3 C          -7.6509  -20.0007   21.9349 C.ar    1  UNL1       -0.0247
      4 C          -6.4400  -20.5642   22.6176 C.ar    1  UNL1       -0.0045
      5 C          -5.0680  -20.1897   22.1409 C.ar    1  UNL1       -0.0003
      6 C          -4.9069  -19.2517   20.9815 C.ar    1  UNL1        0.0012
      7 C          -6.1178  -18.6882   20.2988 C.ar    1  UNL1       -0.0045
      8 C          -7.4898  -19.0627   20.7755 C.ar    1  UNL1       -0.0247
      9 C          -8.8583  -18.6691   20.3041 C.3     1  UNL1        0.0437
     10 C          -3.5348  -18.8772   20.5049 C.ar    1  UNL1        0.0193
     11 C          -3.3633  -18.1724   19.1920 C.ar    1  UNL1        0.0055
     12 C          -1.9912  -17.7979   18.7153 C.ar    1  UNL1        0.0497
     13 C          -0.7906  -18.1282   19.5516 C.ar    1  UNL1        0.2223
     14 F           0.5814  -17.7537   19.0750 F       1  UNL1       -0.1832
     15 N          -0.9621  -18.8330   20.8646 N.ar    1  UNL1       -0.2165
     16 C          -2.3342  -19.2075   21.3412 C.ar    1  UNL1        0.1012
     17 N         -11.3565  -19.2547   21.0532 N.3     1  UNL1       -0.1841
     18 H         -11.5562  -18.9863   20.0896 H       1  UNL1        0.1484
     19 S         -12.1115  -18.3030   21.9331 S.O2    1  UNL1        0.0390
     20 O         -11.7428  -19.1214   23.1348 O.2     1  UNL1       -0.1576
     21 O         -12.4802  -17.4845   20.7314 O.2     1  UNL1       -0.1576
     22 C         -12.6707  -15.8720   22.6594 C.3     1  UNL1        0.0270
     23 C         -12.8664  -17.3512   22.8130 C.3     1  UNL1        0.1457
     24 C         -13.8170  -17.8787   23.8465 C.3     1  UNL1        0.0270
@<TRIPOS>BOND
     1    22    23    1
     2    23    24    1
     3    23    19    1
     4    19    20    2
     5    19    21    2
     6    19    17    1
     7     1    17    1
     8     1     2    1
     9     2     3    1
    10     3     4   ar
    11     4     5   ar
    12     5     6   ar
    13     6    10    1
    14    10    11   ar
    15    11    12   ar
    16    12    13   ar
    17    13    14    1
    18    13    15   ar
    19    15    16   ar
    20     6     7   ar
    21     7     8   ar
    22     8     9    1
    23     9     1    1
    24     8     3   ar
    25    16    10   ar
    26    17    18    1
@<TRIPOS>MOLECULE
*****
 24 26 0 0 0
SMALL
GASTEIGER

@<TRIPOS>ATOM
      1 C          -9.2658  -19.0646   23.0217 C.3     1  UNL1        0.0838
      2 C          -8.7413  -17.8420   23.7146 C.3     1  UNL1        0.0437
      3 C          -7.3071  -17.6615   23.3140 C.ar    1  UNL1       -0.0247
      4 C          -6.2839  -16.6290   23.6841 C.ar    1  UNL1       -0.0045
      5 C          -4.8989  -16.7076   23.1136 C.ar    1  UNL1       -0.0003
      6 C          -4.5370  -17.8186   22.1730 C.ar    1  UNL1        0.0012
      7 C          -5.5602  -18.8511   21.8029 C.ar    1  UNL1       -0.0045
      8 C          -6.9453  -18.7725   22.3734 C.ar    1  UNL1       -0.0247
      9 C          -8.1558  -19.6396   22.1928 C.3     1  UNL1        0.0437
     10 C          -3.1519  -17.8971   21.6026 C.ar    1  UNL1        0.0193
     11 C          -2.3376  -16.6485   21.4357 C.ar    1  UNL1        0.0055
     12 C          -0.9525  -16.7270   20.8652 C.ar    1  UNL1        0.0497
     13 C          -0.3818  -18.0541   20.4616 C.ar    1  UNL1        0.2223
     14 F           1.0033  -18.1327   19.8912 F       1  UNL1       -0.1832
     15 N          -1.1961  -19.3028   20.6285 N.ar    1  UNL1       -0.2165
     16 C          -2.5812  -19.2242   21.1990 C.ar    1  UNL1        0.1012
     17 N         -10.6563  -19.6153   23.1374 N.3     1  UNL1       -0.1841
     18 H         -10.8116  -20.1980   22.3147 H       1  UNL1        0.1484
     19 S         -11.8268  -18.6825   23.2345 S.O2    1  UNL1        0.0390
     20 O         -11.8070  -18.5026   21.7455 O.2     1  UNL1       -0.1576
     21 O         -11.8466  -18.8624   24.7235 O.2     1  UNL1       -0.1576
     22 C         -12.9720  -16.4363   22.6074 C.3     1  UNL1        0.0270
     23 C         -12.9974  -17.7495   23.3317 C.3     1  UNL1        0.1457
     24 C         -14.1935  -18.1299   24.1531 C.3     1  UNL1        0.0270
@<TRIPOS>BOND
     1    22    23    1
     2    23    24    1
     3    23    19    1
     4    19    20    2
     5    19    21    2
     6    19    17    1
     7     1    17    1
     8     1     2    1
     9     2     3    1
    10     3     4   ar
    11     4     5   ar
    12     5     6   ar
    13     6    10    1
    14    10    11   ar
    15    11    12   ar
    16    12    13   ar
    17    13    14    1
    18    13    15   ar
    19    15    16   ar
    20     6     7   ar
    21     7     8   ar
    22     8     9    1
    23     9     1    1
    24     8     3   ar
    25    16    10   ar
    26    17    18    1
@<TRIPOS>MOLECULE
*****
 24 26 0 0 0
SMALL
GASTEIGER

@<TRIPOS>ATOM
      1 C          -9.1111  -17.2746   23.9255 C.3     1  UNL1        0.0838
      2 C          -8.2234  -16.2968   24.6366 C.3     1  UNL1        0.0437
      3 C          -6.8347  -16.4491   24.0904 C.ar    1  UNL1       -0.0247
      4 C          -5.5472  -15.7502   24.4125 C.ar    1  UNL1       -0.0045
      5 C          -4.2892  -16.1232   23.6858 C.ar    1  UNL1       -0.0003
      6 C          -4.3187  -17.1952   22.6370 C.ar    1  UNL1        0.0012
      7 C          -5.6062  -17.8941   22.3149 C.ar    1  UNL1       -0.0045
      8 C          -6.8642  -17.5211   23.0416 C.ar    1  UNL1       -0.0247
      9 C          -8.2711  -18.0313   22.9397 C.3     1  UNL1        0.0437
     10 C          -3.0606  -17.5682   21.9102 C.ar    1  UNL1        0.0193
     11 C          -2.1664  -16.4969   21.3602 C.ar    1  UNL1        0.0055
     12 C          -0.9083  -16.8699   20.6335 C.ar    1  UNL1        0.0497
     13 C          -0.5444  -18.3143   20.4568 C.ar    1  UNL1        0.2223
     14 F           0.7136  -18.6874   19.7302 F       1  UNL1       -0.1832
     15 N          -1.4387  -19.3857   21.0069 N.ar    1  UNL1       -0.2165
     16 C          -2.6967  -19.0127   21.7336 C.ar    1  UNL1        0.1012
     17 N         -10.5808  -17.4628   24.1591 N.3     1  UNL1       -0.1841
     18 H         -10.6951  -18.3787   24.5931 H       1  UNL1        0.1484
     19 S         -11.5368  -17.4084   23.0045 S.O2    1  UNL1        0.0390
     20 O         -11.7947  -18.8790   23.1488 O.2     1  UNL1       -0.1576
     21 O         -11.2789  -15.9379   22.8601 O.2     1  UNL1       -0.1576
     22 C         -12.1904  -16.4841   20.6660 C.3     1  UNL1        0.0270
     23 C         -12.4928  -17.3542   21.8498 C.3     1  UNL1        0.1457
     24 C         -13.7512  -18.1701   21.8790 C.3     1  UNL1        0.0270
@<TRIPOS>BOND
     1    22    23    1
     2    23    24    1
     3    23    19    1
     4    19    20    2
     5    19    21    2
     6    19    17    1
     7     1    17    1
     8     1     2    1
     9     2     3    1
    10     3     4   ar
    11     4     5   ar
    12     5     6   ar
    13     6    10    1
    14    10    11   ar
    15    11    12   ar
    16    12    13   ar
    17    13    14    1
    18    13    15   ar
    19    15    16   ar
    20     6     7   ar
    21     7     8   ar
    22     8     9    1
    23     9     1    1
    24     8     3   ar
    25    16    10   ar
    26    17    18    1
@<TRIPOS>MOLECULE
*****
 24 26 0 0 0
SMALL
GASTEIGER

@<TRIPOS>ATOM
      1 C           4.4113    1.4218   36.4824 C.3     1  UNL1        0.0838
      2 C           4.6134    2.1606   35.1927 C.3     1  UNL1        0.0437
      3 C           5.0082    1.1633   34.1441 C.ar    1  UNL1       -0.0247
      4 C           5.3350    1.3141   32.6879 C.ar    1  UNL1       -0.0045
      5 C           5.7036    0.1097   31.8734 C.ar    1  UNL1       -0.0003
      6 C           5.7455   -1.2455   32.5150 C.ar    1  UNL1        0.0012
      7 C           5.4187   -1.3963   33.9712 C.ar    1  UNL1       -0.0045
      8 C           5.0501   -0.1919   34.7857 C.ar    1  UNL1       -0.0247
      9 C           4.6812   -0.0321   36.2308 C.3     1  UNL1        0.0437
     10 C           6.1141   -2.4499   31.7004 C.ar    1  UNL1        0.0193
     11 C           6.4525   -3.7420   32.3829 C.ar    1  UNL1        0.0055
     12 C           6.8211   -4.9465   31.5683 C.ar    1  UNL1        0.0497
     13 C           6.8514   -4.8587   30.0712 C.ar    1  UNL1        0.2223
     14 F           7.2200   -6.0630   29.2566 F       1  UNL1       -0.1832
     15 N           6.5130   -3.5665   29.3887 N.ar    1  UNL1       -0.2165
     16 C           6.1443   -2.3621   30.2033 C.ar    1  UNL1        0.1012
     17 N           4.0098    2.0301   37.7934 N.3     1  UNL1       -0.1841
     18 H           4.7478    1.8052   38.4606 H       1  UNL1        0.1484
     19 S           2.7118    1.6392   38.4354 S.O2    1  UNL1        0.0390
     20 O           1.9604    2.3464   37.3467 O.2     1  UNL1       -0.1576
     21 O           3.4631    0.9320   39.5240 O.2     1  UNL1       -0.1576
     22 C           0.3227    2.2644   39.2425 C.3     1  UNL1        0.0270
     23 C           1.4136    1.2483   39.0773 C.3     1  UNL1        0.1457
     24 C           1.2065   -0.1588   39.5541 C.3     1  UNL1        0.0270
@<TRIPOS>BOND
     1    22    23    1
     2    23    24    1
     3    23    19    1
     4    19    20    2
     5    19    21    2
     6    19    17    1
     7     1    17    1
     8     1     2    1
     9     2     3    1
    10     3     4   ar
    11     4     5   ar
    12     5     6   ar
    13     6    10    1
    14    10    11   ar
    15    11    12   ar
    16    12    13   ar
    17    13    14    1
    18    13    15   ar
    19    15    16   ar
    20     6     7   ar
    21     7     8   ar
    22     8     9    1
    23     9     1    1
    24     8     3   ar
    25    16    10   ar
    26    17    18    1
