@<TRIPOS>MOLECULE
*****
 25 28 0 0 0
SMALL
GASTEIGER

@<TRIPOS>ATOM
      1 O           3.8712   -1.2652   16.2509 O.2     1  UNL1       -0.2699
      2 C           3.9128   -0.8059   17.6783 C.2     1  UNL1        0.2494
      3 N           4.4600   -1.7112   18.7418 N.am    1  UNL1       -0.2698
      4 C           4.9657   -3.0757   18.3780 C.3     1  UNL1        0.1021
      5 C           5.5129   -3.9809   19.4415 C.3     1  UNL1        0.0874
      6 C           5.5544   -3.5216   20.8688 C.ar    1  UNL1        0.1415
      7 O           6.0340   -4.1882   22.1241 O.2     1  UNL1       -0.4380
      8 C           5.8248   -3.2356   23.2638 C.ar    1  UNL1        0.2471
      9 N           5.2159   -1.9804   22.7128 N.ar    1  UNL1       -0.2100
     10 C           5.0488   -2.1571   21.2327 C.ar    1  UNL1        0.1124
     11 C           4.5016   -1.2519   20.1691 C.3     1  UNL1        0.1425
     12 C           3.4072    0.5586   18.0421 C.ar    1  UNL1        0.0558
     13 C           4.3649    1.7073   18.1574 C.ar    1  UNL1        0.0047
     14 C           3.8592    3.0718   18.5212 C.ar    1  UNL1        0.0025
     15 C           2.3958    3.2877   18.7698 C.ar    1  UNL1        0.0296
     16 C           1.4381    2.1390   18.6545 C.ar    1  UNL1        0.1403
     17 F          -0.0253    2.3549   18.9031 F       1  UNL1       -0.2042
     18 C           1.9437    0.7745   18.2907 C.ar    1  UNL1        0.0341
     19 C           6.1647   -3.4931   24.7019 C.ar    1  UNL1        0.1348
     20 C           6.8307   -4.7778   25.0968 C.ar    1  UNL1        0.0262
     21 C           7.1707   -5.0353   26.5348 C.ar    1  UNL1        0.0329
     22 C           6.8446   -4.0081   27.5781 C.ar    1  UNL1        0.1592
     23 F           7.1845   -4.2655   29.0162 F       1  UNL1       -0.2025
     24 C           6.1786   -2.7234   27.1832 C.ar    1  UNL1        0.1285
     25 N           5.8386   -2.4659   25.7452 N.ar    1  UNL1       -0.2368
@<TRIPOS>BOND
     1     1     2    2
     2     2    12    1
     3    12    13   ar
     4    13    14   ar
     5    14    15   ar
     6    15    16   ar
     7    16    17    1
     8    16    18   ar
     9     2     3   am
    10     3     4    1
    11     4     5    1
    12     5     6    1
    13     6     7   ar
    14     7     8   ar
    15     8    19    1
    16    19    20   ar
    17    20    21   ar
    18    21    22   ar
    19    22    23    1
    20    22    24   ar
    21    24    25   ar
    22     8     9   ar
    23     9    10   ar
    24    10    11    1
    25    18    12   ar
    26    11     3    1
    27    10     6   ar
    28    25    19   ar
@<TRIPOS>MOLECULE
*****
 25 28 0 0 0
SMALL
GASTEIGER

@<TRIPOS>ATOM
      1 O           5.5900    0.7876   18.2709 O.2     1  UNL1       -0.2699
      2 C           4.3547    0.3668   19.0105 C.2     1  UNL1        0.2494
      3 N           3.1786    1.2941   19.0948 N.am    1  UNL1       -0.2698
      4 C           3.2379    2.6421   18.4396 C.3     1  UNL1        0.1021
      5 C           2.0618    3.5693   18.5240 C.3     1  UNL1        0.0874
      6 C           0.8266    3.1485   19.2636 C.ar    1  UNL1        0.1415
      7 O          -0.4792    3.8433   19.5135 O.2     1  UNL1       -0.4380
      8 C          -1.3454    2.9246   20.3232 C.ar    1  UNL1        0.2471
      9 N          -0.5750    1.6621   20.5737 N.ar    1  UNL1       -0.2100
     10 C           0.7673    1.8005   19.9188 C.ar    1  UNL1        0.1124
     11 C           1.9433    0.8733   19.8344 C.3     1  UNL1        0.1425
     12 C           4.2955   -0.9812   19.6657 C.ar    1  UNL1        0.0558
     13 C           4.7905   -1.1544   21.0710 C.ar    1  UNL1        0.0047
     14 C           4.7312   -2.5025   21.7263 C.ar    1  UNL1        0.0025
     15 C           4.1769   -3.6772   20.9762 C.ar    1  UNL1        0.0296
     16 C           3.6819   -3.5040   19.5709 C.ar    1  UNL1        0.1403
     17 F           3.1276   -4.6788   18.8208 F       1  UNL1       -0.2042
     18 C           3.7411   -2.1560   18.9156 C.ar    1  UNL1        0.0341
     19 C          -2.7377    3.2170   20.7990 C.ar    1  UNL1        0.1348
     20 C          -3.8252    3.5020   19.8060 C.ar    1  UNL1        0.0262
     21 C          -5.2174    3.7943   20.2817 C.ar    1  UNL1        0.0329
     22 C          -5.5220    3.8017   21.7503 C.ar    1  UNL1        0.1592
     23 F          -6.9143    4.0941   22.2261 F       1  UNL1       -0.2025
     24 C          -4.4345    3.5168   22.7434 C.ar    1  UNL1        0.1285
     25 N          -3.0423    3.2244   22.2677 N.ar    1  UNL1       -0.2368
@<TRIPOS>BOND
     1     1     2    2
     2     2    12    1
     3    12    13   ar
     4    13    14   ar
     5    14    15   ar
     6    15    16   ar
     7    16    17    1
     8    16    18   ar
     9     2     3   am
    10     3     4    1
    11     4     5    1
    12     5     6    1
    13     6     7   ar
    14     7     8   ar
    15     8    19    1
    16    19    20   ar
    17    20    21   ar
    18    21    22   ar
    19    22    23    1
    20    22    24   ar
    21    24    25   ar
    22     8     9   ar
    23     9    10   ar
    24    10    11    1
    25    18    12   ar
    26    11     3    1
    27    10     6   ar
    28    25    19   ar
@<TRIPOS>MOLECULE
*****
 25 28 0 0 0
SMALL
GASTEIGER

@<TRIPOS>ATOM
      1 O           5.0173   -2.6733   23.6339 O.2     1  UNL1       -0.2699
      2 C           4.2289   -2.2947   22.4152 C.2     1  UNL1        0.2494
      3 N           3.2211   -1.1861   22.4884 N.am    1  UNL1       -0.2698
      4 C           3.0017   -0.4561   23.7803 C.3     1  UNL1        0.1021
      5 C           1.9940    0.6525   23.8534 C.3     1  UNL1        0.0874
      6 C           1.2056    1.0311   22.6348 C.ar    1  UNL1        0.1415
      7 O           0.1514    2.0733   22.4050 O.2     1  UNL1       -0.4380
      8 C          -0.2806    1.9873   20.9712 C.ar    1  UNL1        0.2471
      9 N           0.5065    0.8920   20.3148 N.ar    1  UNL1       -0.2100
     10 C           1.4249    0.3010   21.3429 C.ar    1  UNL1        0.1124
     11 C           2.4327   -0.8076   21.2698 C.3     1  UNL1        0.1425
     12 C           4.4483   -3.0248   21.1234 C.ar    1  UNL1        0.0558
     13 C           3.7444   -4.3244   20.8674 C.ar    1  UNL1        0.0047
     14 C           3.9638   -5.0544   19.5755 C.ar    1  UNL1        0.0025
     15 C           4.8871   -4.4849   18.5396 C.ar    1  UNL1        0.0296
     16 C           5.5910   -3.1853   18.7956 C.ar    1  UNL1        0.1403
     17 F           6.5143   -2.6157   17.7597 F       1  UNL1       -0.2042
     18 C           5.3717   -2.4552   20.0874 C.ar    1  UNL1        0.0341
     19 C          -1.3177    2.8460   20.3098 C.ar    1  UNL1        0.1348
     20 C          -0.9432    3.7079   19.1407 C.ar    1  UNL1        0.0262
     21 C          -1.9802    4.5665   18.4793 C.ar    1  UNL1        0.0329
     22 C          -3.3916    4.5631   18.9870 C.ar    1  UNL1        0.1592
     23 F          -4.4287    5.4217   18.3257 F       1  UNL1       -0.2025
     24 C          -3.7660    3.7012   20.1562 C.ar    1  UNL1        0.1285
     25 N          -2.7291    2.8426   20.8176 N.ar    1  UNL1       -0.2368
@<TRIPOS>BOND
     1     1     2    2
     2     2    12    1
     3    12    13   ar
     4    13    14   ar
     5    14    15   ar
     6    15    16   ar
     7    16    17    1
     8    16    18   ar
     9     2     3   am
    10     3     4    1
    11     4     5    1
    12     5     6    1
    13     6     7   ar
    14     7     8   ar
    15     8    19    1
    16    19    20   ar
    17    20    21   ar
    18    21    22   ar
    19    22    23    1
    20    22    24   ar
    21    24    25   ar
    22     8     9   ar
    23     9    10   ar
    24    10    11    1
    25    18    12   ar
    26    11     3    1
    27    10     6   ar
    28    25    19   ar
@<TRIPOS>MOLECULE
*****
 25 28 0 0 0
SMALL
GASTEIGER

@<TRIPOS>ATOM
      1 O           8.8738   -6.9470   31.5379 O.2     1  UNL1       -0.2699
      2 C           8.3197   -5.8216   30.7155 C.2     1  UNL1        0.2494
      3 N           8.1385   -5.9923   29.2362 N.am    1  UNL1       -0.2698
      4 C           8.5115   -7.2882   28.5794 C.3     1  UNL1        0.1021
      5 C           8.3303   -7.4587   27.1003 C.3     1  UNL1        0.0874
      6 C           7.7761   -6.3334   26.2778 C.ar    1  UNL1        0.1415
      7 O           7.4876   -6.2096   24.8110 O.2     1  UNL1       -0.4380
      8 C           6.9363   -4.8371   24.5612 C.ar    1  UNL1        0.2471
      9 N           6.8841   -4.1127   25.8737 N.ar    1  UNL1       -0.2100
     10 C           7.4031   -5.0374   26.9346 C.ar    1  UNL1        0.1124
     11 C           7.5843   -4.8669   28.4138 C.3     1  UNL1        0.1425
     12 C           7.9467   -4.5257   31.3722 C.ar    1  UNL1        0.0558
     13 C           8.9846   -3.4620   31.5758 C.ar    1  UNL1        0.0047
     14 C           8.6115   -2.1660   32.2326 C.ar    1  UNL1        0.0025
     15 C           7.2006   -1.9338   32.6857 C.ar    1  UNL1        0.0296
     16 C           6.1627   -2.9974   32.4822 C.ar    1  UNL1        0.1403
     17 F           4.7519   -2.7651   32.9354 F       1  UNL1       -0.2042
     18 C           6.5357   -4.2934   31.8254 C.ar    1  UNL1        0.0341
     19 C           6.5118   -4.2858   23.2324 C.ar    1  UNL1        0.1348
     20 C           5.2167   -3.5390   23.1094 C.ar    1  UNL1        0.0262
     21 C           4.7921   -2.9877   21.7806 C.ar    1  UNL1        0.0329
     22 C           5.6626   -3.1833   20.5748 C.ar    1  UNL1        0.1592
     23 F           5.2380   -2.6320   19.2459 F       1  UNL1       -0.2025
     24 C           6.9576   -3.9301   20.6977 C.ar    1  UNL1        0.1285
     25 N           7.3822   -4.4814   22.0265 N.ar    1  UNL1       -0.2368
@<TRIPOS>BOND
     1     1     2    2
     2     2    12    1
     3    12    13   ar
     4    13    14   ar
     5    14    15   ar
     6    15    16   ar
     7    16    17    1
     8    16    18   ar
     9     2     3   am
    10     3     4    1
    11     4     5    1
    12     5     6    1
    13     6     7   ar
    14     7     8   ar
    15     8    19    1
    16    19    20   ar
    17    20    21   ar
    18    21    22   ar
    19    22    23    1
    20    22    24   ar
    21    24    25   ar
    22     8     9   ar
    23     9    10   ar
    24    10    11    1
    25    18    12   ar
    26    11     3    1
    27    10     6   ar
    28    25    19   ar
@<TRIPOS>MOLECULE
*****
 25 28 0 0 0
SMALL
GASTEIGER

@<TRIPOS>ATOM
      1 O         -14.8391   -9.5307   18.9791 O.2     1  UNL1       -0.2699
      2 C         -15.7904   -8.3754   19.0813 C.2     1  UNL1        0.2494
      3 N         -15.2622   -6.9739   19.1631 N.am    1  UNL1       -0.2698
      4 C         -13.7827   -6.7276   19.1427 C.3     1  UNL1        0.1021
      5 C         -13.2545   -5.3261   19.2244 C.3     1  UNL1        0.0874
      6 C         -14.2058   -4.1708   19.3266 C.ar    1  UNL1        0.1415
      7 O         -13.9809   -2.6907   19.4213 O.2     1  UNL1       -0.4380
      8 C         -15.3214   -2.0223   19.5003 C.ar    1  UNL1        0.2471
      9 N         -16.3748   -3.0893   19.4543 N.ar    1  UNL1       -0.2100
     10 C         -15.6853   -4.4171   19.3470 C.ar    1  UNL1        0.1124
     11 C         -16.2135   -5.8186   19.2652 C.3     1  UNL1        0.1425
     12 C         -17.2699   -8.6217   19.1017 C.ar    1  UNL1        0.0558
     13 C         -17.9663   -9.1086   17.8656 C.ar    1  UNL1        0.0047
     14 C         -19.4459   -9.3549   17.8860 C.ar    1  UNL1        0.0025
     15 C         -20.2289   -9.1143   19.1425 C.ar    1  UNL1        0.0296
     16 C         -19.5325   -8.6274   20.3787 C.ar    1  UNL1        0.1403
     17 F         -20.3156   -8.3868   21.6352 F       1  UNL1       -0.2042
     18 C         -18.0530   -8.3811   20.3583 C.ar    1  UNL1        0.0341
     19 C         -15.5658   -0.5461   19.6065 C.ar    1  UNL1        0.1348
     20 C         -16.6759   -0.0302   20.4733 C.ar    1  UNL1        0.0262
     21 C         -16.9202    1.4460   20.5796 C.ar    1  UNL1        0.0329
     22 C         -16.0544    2.4061   19.8189 C.ar    1  UNL1        0.1592
     23 F         -16.2988    3.8823   19.9252 F       1  UNL1       -0.2025
     24 C         -14.9443    1.8901   18.9521 C.ar    1  UNL1        0.1285
     25 N         -14.7000    0.4140   18.8459 N.ar    1  UNL1       -0.2368
@<TRIPOS>BOND
     1     1     2    2
     2     2    12    1
     3    12    13   ar
     4    13    14   ar
     5    14    15   ar
     6    15    16   ar
     7    16    17    1
     8    16    18   ar
     9     2     3   am
    10     3     4    1
    11     4     5    1
    12     5     6    1
    13     6     7   ar
    14     7     8   ar
    15     8    19    1
    16    19    20   ar
    17    20    21   ar
    18    21    22   ar
    19    22    23    1
    20    22    24   ar
    21    24    25   ar
    22     8     9   ar
    23     9    10   ar
    24    10    11    1
    25    18    12   ar
    26    11     3    1
    27    10     6   ar
    28    25    19   ar
@<TRIPOS>MOLECULE
*****
 25 28 0 0 0
SMALL
GASTEIGER

@<TRIPOS>ATOM
      1 O           3.3874   -1.4657   27.8759 O.2     1  UNL1       -0.2699
      2 C           2.6996   -0.5498   28.8443 C.2     1  UNL1        0.2494
      3 N           3.2739   -0.3381   30.2138 N.am    1  UNL1       -0.2698
      4 C           4.5361   -1.0423   30.6147 C.3     1  UNL1        0.1021
      5 C           5.1104   -0.8306   31.9841 C.3     1  UNL1        0.0874
      6 C           4.4226    0.0853   32.9526 C.ar    1  UNL1        0.1415
      7 O           4.7503    0.4869   34.3602 O.2     1  UNL1       -0.4380
      8 C           3.6906    1.4393   34.8292 C.ar    1  UNL1        0.2471
      9 N           2.7080    1.6264   33.7114 N.ar    1  UNL1       -0.2100
     10 C           3.1604    0.7896   32.5516 C.ar    1  UNL1        0.1124
     11 C           2.5861    0.5779   31.1822 C.3     1  UNL1        0.1425
     12 C           1.4374    0.1545   28.4433 C.ar    1  UNL1        0.0558
     13 C           1.4872    1.2725   27.4445 C.ar    1  UNL1        0.0047
     14 C           0.2249    1.9767   27.0435 C.ar    1  UNL1        0.0025
     15 C          -1.0871    1.5630   27.6414 C.ar    1  UNL1        0.0296
     16 C          -1.1369    0.4451   28.6402 C.ar    1  UNL1        0.1403
     17 F          -2.4489    0.0314   29.2381 F       1  UNL1       -0.2042
     18 C           0.1253   -0.2592   29.0412 C.ar    1  UNL1        0.0341
     19 C           3.6251    2.0904   36.1789 C.ar    1  UNL1        0.1348
     20 C           2.4733    2.9874   36.5238 C.ar    1  UNL1        0.0262
     21 C           2.4077    3.6385   37.8735 C.ar    1  UNL1        0.0329
     22 C           3.4938    3.3925   38.8783 C.ar    1  UNL1        0.1592
     23 F           3.4282    4.0436   40.2281 F       1  UNL1       -0.2025
     24 C           4.6456    2.4955   38.5335 C.ar    1  UNL1        0.1285
     25 N           4.7112    1.8445   37.1838 N.ar    1  UNL1       -0.2368
@<TRIPOS>BOND
     1     1     2    2
     2     2    12    1
     3    12    13   ar
     4    13    14   ar
     5    14    15   ar
     6    15    16   ar
     7    16    17    1
     8    16    18   ar
     9     2     3   am
    10     3     4    1
    11     4     5    1
    12     5     6    1
    13     6     7   ar
    14     7     8   ar
    15     8    19    1
    16    19    20   ar
    17    20    21   ar
    18    21    22   ar
    19    22    23    1
    20    22    24   ar
    21    24    25   ar
    22     8     9   ar
    23     9    10   ar
    24    10    11    1
    25    18    12   ar
    26    11     3    1
    27    10     6   ar
    28    25    19   ar
@<TRIPOS>MOLECULE
*****
 25 28 0 0 0
SMALL
GASTEIGER

@<TRIPOS>ATOM
      1 O           5.7410   -0.0087   18.1749 O.2     1  UNL1       -0.2699
      2 C           4.5081   -0.3494   18.9584 C.2     1  UNL1        0.2494
      3 N           3.4479    0.6889   19.1773 N.am    1  UNL1       -0.2698
      4 C           3.6205    2.0678   18.6127 C.3     1  UNL1        0.1021
      5 C           2.5603    3.1060   18.8316 C.3     1  UNL1        0.0874
      6 C           1.3274    2.7653   19.6151 C.ar    1  UNL1        0.1415
      7 O           0.1215    3.5746   19.9911 O.2     1  UNL1       -0.4380
      8 C          -0.7963    2.6957   20.7880 C.ar    1  UNL1        0.2471
      9 N          -0.1578    1.3434   20.9046 N.ar    1  UNL1       -0.2100
     10 C           1.1547    1.3865   20.1797 C.ar    1  UNL1        0.1124
     11 C           2.2150    0.3483   19.9608 C.3     1  UNL1        0.1425
     12 C           4.3355   -1.7282   19.5230 C.ar    1  UNL1        0.0558
     13 C           3.8867   -2.8513   18.6357 C.ar    1  UNL1        0.0047
     14 C           3.7141   -4.2302   19.2004 C.ar    1  UNL1        0.0025
     15 C           3.9902   -4.4860   20.6524 C.ar    1  UNL1        0.0296
     16 C           4.4389   -3.3630   21.5397 C.ar    1  UNL1        0.1403
     17 F           4.7150   -3.6188   22.9917 F       1  UNL1       -0.2042
     18 C           4.6116   -1.9841   20.9751 C.ar    1  UNL1        0.0341
     19 C          -2.1203    3.0985   21.3668 C.ar    1  UNL1        0.1348
     20 C          -2.1874    3.6971   22.7405 C.ar    1  UNL1        0.0262
     21 C          -3.5113    4.0998   23.3193 C.ar    1  UNL1        0.0329
     22 C          -4.7681    3.9039   22.5244 C.ar    1  UNL1        0.1592
     23 F          -6.0921    4.3066   23.1032 F       1  UNL1       -0.2025
     24 C          -4.7010    3.3052   21.1507 C.ar    1  UNL1        0.1285
     25 N          -3.3771    2.9025   20.5719 N.ar    1  UNL1       -0.2368
@<TRIPOS>BOND
     1     1     2    2
     2     2    12    1
     3    12    13   ar
     4    13    14   ar
     5    14    15   ar
     6    15    16   ar
     7    16    17    1
     8    16    18   ar
     9     2     3   am
    10     3     4    1
    11     4     5    1
    12     5     6    1
    13     6     7   ar
    14     7     8   ar
    15     8    19    1
    16    19    20   ar
    17    20    21   ar
    18    21    22   ar
    19    22    23    1
    20    22    24   ar
    21    24    25   ar
    22     8     9   ar
    23     9    10   ar
    24    10    11    1
    25    18    12   ar
    26    11     3    1
    27    10     6   ar
    28    25    19   ar
@<TRIPOS>MOLECULE
*****
 25 28 0 0 0
SMALL
GASTEIGER

@<TRIPOS>ATOM
      1 O          -3.6437    5.2305   22.7936 O.2     1  UNL1       -0.2699
      2 C          -3.1842    4.4358   21.6073 C.2     1  UNL1        0.2494
      3 N          -1.9502    3.5884   21.7045 N.am    1  UNL1       -0.2698
      4 C          -1.1758    3.5359   22.9880 C.3     1  UNL1        0.1021
      5 C           0.0582    2.6886   23.0851 C.3     1  UNL1        0.0874
      6 C           0.5176    1.8938   21.8988 C.ar    1  UNL1        0.1415
      7 O           1.6868    0.9759   21.6974 O.2     1  UNL1       -0.4380
      8 C           1.6349    0.4612   20.2895 C.ar    1  UNL1        0.2471
      9 N           0.4336    1.0610   19.6207 N.ar    1  UNL1       -0.2100
     10 C          -0.2569    1.9464   20.6153 C.ar    1  UNL1        0.1124
     11 C          -1.4908    2.7937   20.5182 C.3     1  UNL1        0.1425
     12 C          -3.9587    4.4884   20.3238 C.ar    1  UNL1        0.0558
     13 C          -3.5966    5.4925   19.2699 C.ar    1  UNL1        0.0047
     14 C          -4.3712    5.5450   17.9864 C.ar    1  UNL1        0.0025
     15 C          -5.5077    4.5935   17.7568 C.ar    1  UNL1        0.0296
     16 C          -5.8698    3.5894   18.8106 C.ar    1  UNL1        0.1403
     17 F          -7.0064    2.6378   18.5810 F       1  UNL1       -0.2042
     18 C          -5.0953    3.5368   20.0941 C.ar    1  UNL1        0.0341
     19 C           2.6126   -0.4868   19.6606 C.ar    1  UNL1        0.1348
     20 C           3.0817   -1.6928   20.4192 C.ar    1  UNL1        0.0262
     21 C           4.0594   -2.6408   19.7905 C.ar    1  UNL1        0.0329
     22 C           4.5678   -2.3829   18.4031 C.ar    1  UNL1        0.1592
     23 F           5.5455   -3.3309   17.7742 F       1  UNL1       -0.2025
     24 C           4.0987   -1.1769   17.6445 C.ar    1  UNL1        0.1285
     25 N           3.1210   -0.2289   18.2732 N.ar    1  UNL1       -0.2368
@<TRIPOS>BOND
     1     1     2    2
     2     2    12    1
     3    12    13   ar
     4    13    14   ar
     5    14    15   ar
     6    15    16   ar
     7    16    17    1
     8    16    18   ar
     9     2     3   am
    10     3     4    1
    11     4     5    1
    12     5     6    1
    13     6     7   ar
    14     7     8   ar
    15     8    19    1
    16    19    20   ar
    17    20    21   ar
    18    21    22   ar
    19    22    23    1
    20    22    24   ar
    21    24    25   ar
    22     8     9   ar
    23     9    10   ar
    24    10    11    1
    25    18    12   ar
    26    11     3    1
    27    10     6   ar
    28    25    19   ar
@<TRIPOS>MOLECULE
*****
 25 28 0 0 0
SMALL
GASTEIGER

@<TRIPOS>ATOM
      1 O          -2.0746    4.4098   26.0146 O.2     1  UNL1       -0.2699
      2 C          -1.0799    3.2919   25.9102 C.2     1  UNL1        0.2494
      3 N          -0.5832    2.8531   24.5645 N.am    1  UNL1       -0.2698
      4 C          -1.0812    3.5323   23.3232 C.3     1  UNL1        0.1021
      5 C          -0.5845    3.0936   21.9776 C.3     1  UNL1        0.0874
      6 C           0.4102    1.9756   21.8732 C.ar    1  UNL1        0.1415
      7 O           1.0752    1.3308   20.6934 O.2     1  UNL1       -0.4380
      8 C           1.9842    0.2531   21.2055 C.ar    1  UNL1        0.2471
      9 N           1.8809    0.2319   22.7018 N.ar    1  UNL1       -0.2100
     10 C           0.9082    1.2965   23.1145 C.ar    1  UNL1        0.1124
     11 C           0.4114    1.7352   24.4601 C.3     1  UNL1        0.1425
     12 C          -0.5820    2.6127   27.1514 C.ar    1  UNL1        0.0558
     13 C           0.5438    3.2173   27.9370 C.ar    1  UNL1        0.0047
     14 C           1.0417    2.5380   29.1783 C.ar    1  UNL1        0.0025
     15 C           0.4139    1.2543   29.6340 C.ar    1  UNL1        0.0296
     16 C          -0.7118    0.6496   28.8484 C.ar    1  UNL1        0.1403
     17 F          -1.3396   -0.6342   29.3040 F       1  UNL1       -0.2042
     18 C          -1.2098    1.3288   27.6071 C.ar    1  UNL1        0.0341
     19 C           2.8453   -0.6457   20.3683 C.ar    1  UNL1        0.1348
     20 C           3.5019   -1.8443   20.9866 C.ar    1  UNL1        0.0262
     21 C           4.3629   -2.7431   20.1495 C.ar    1  UNL1        0.0329
     22 C           4.5674   -2.4432   18.6941 C.ar    1  UNL1        0.1592
     23 F           5.4285   -3.3420   17.8570 F       1  UNL1       -0.2025
     24 C           3.9108   -1.2447   18.0758 C.ar    1  UNL1        0.1285
     25 N           3.0497   -0.3459   18.9129 N.ar    1  UNL1       -0.2368
@<TRIPOS>BOND
     1     1     2    2
     2     2    12    1
     3    12    13   ar
     4    13    14   ar
     5    14    15   ar
     6    15    16   ar
     7    16    17    1
     8    16    18   ar
     9     2     3   am
    10     3     4    1
    11     4     5    1
    12     5     6    1
    13     6     7   ar
    14     7     8   ar
    15     8    19    1
    16    19    20   ar
    17    20    21   ar
    18    21    22   ar
    19    22    23    1
    20    22    24   ar
    21    24    25   ar
    22     8     9   ar
    23     9    10   ar
    24    10    11    1
    25    18    12   ar
    26    11     3    1
    27    10     6   ar
    28    25    19   ar
