@<TRIPOS>MOLECULE
*****
 27 30 0 0 0
SMALL
GASTEIGER

@<TRIPOS>ATOM
      1 C          -7.2464  -18.4144   21.9892 C.ar    1  UNL1        0.0022
      2 C          -7.8878  -19.7103   22.3880 C.ar    1  UNL1        0.0001
      3 C          -9.2965  -19.7225   22.9034 C.ar    1  UNL1        0.0000
      4 C         -10.0636  -18.4388   23.0201 C.ar    1  UNL1        0.0000
      5 C          -9.4221  -17.1429   22.6212 C.ar    1  UNL1        0.0000
      6 C          -8.0135  -17.1307   22.1058 C.ar    1  UNL1        0.0001
      7 C         -11.4722  -18.4510   23.5355 C.ar    1  UNL1        0.0002
      8 C         -11.7488  -18.8572   24.9526 C.ar    1  UNL1        0.0031
      9 C         -13.1574  -18.8695   25.4681 C.ar    1  UNL1        0.0366
     10 C         -14.2895  -18.4754   24.5663 C.ar    1  UNL1        0.1337
     11 O         -15.6980  -18.4877   25.0817 O.3     1  UNL1       -0.5055
     12 C         -14.0129  -18.0692   23.1491 C.ar    1  UNL1        0.0366
     13 C         -12.6043  -18.0570   22.6337 C.ar    1  UNL1        0.0031
     14 H         -15.8708  -18.7414   25.9670 H       1  UNL1        0.2922
     15 C          -3.0206  -18.3776   20.4429 C.ar    1  UNL1       -0.0157
     16 C          -4.1190  -18.9683   19.6095 C.ar    1  UNL1       -0.0038
     17 C          -5.5276  -18.9805   20.1250 C.ar    1  UNL1        0.0019
     18 C          -5.8377  -18.4021   21.4738 C.ar    1  UNL1        0.0275
     19 C          -4.7393  -17.8115   22.3071 C.ar    1  UNL1        0.1398
     20 F          -5.0494  -17.2330   23.6559 F       1  UNL1       -0.2042
     21 C          -3.3307  -17.7992   21.7917 C.ar    1  UNL1        0.0257
     22 C          -1.6119  -18.3654   19.9274 C.3     1  UNL1        0.0509
     23 C          -0.1317  -18.5998   19.8652 C.3     1  UNL1        0.0100
     24 C          -0.9164  -19.0715   21.0534 C.3     1  UNL1        0.0100
     25 O          -2.8906  -16.6137   18.4968 O.co2   1  UNL1       -0.5489
     26 C          -1.8183  -17.6550   18.6225 C.2     1  UNL1        0.0534
     27 O          -0.9523  -17.9860   17.4433 O.co2   1  UNL1       -0.5489
@<TRIPOS>UNITY_ATOM_ATTR
25 1
charge -1
@<TRIPOS>BOND
     1    25    26   ar
     2    26    27   ar
     3    26    22    1
     4    22    15    1
     5    15    16   ar
     6    16    17   ar
     7    17    18   ar
     8    18     1    1
     9     1     2   ar
    10     2     3   ar
    11     3     4   ar
    12     4     7    1
    13     7     8   ar
    14     8     9   ar
    15     9    10   ar
    16    10    11    1
    17    10    12   ar
    18    12    13   ar
    19     4     5   ar
    20     5     6   ar
    21    18    19   ar
    22    19    20    1
    23    19    21   ar
    24    22    23    1
    25    23    24    1
    26    24    22    1
    27    21    15   ar
    28     6     1   ar
    29    13     7   ar
    30    11    14    1
@<TRIPOS>MOLECULE
*****
 27 30 0 0 0
SMALL
GASTEIGER

@<TRIPOS>ATOM
      1 C          -7.2751  -18.4097   22.0109 C.ar    1  UNL1        0.0022
      2 C          -8.0271  -17.1224   22.1756 C.ar    1  UNL1        0.0001
      3 C          -9.4349  -17.1370   22.6933 C.ar    1  UNL1        0.0000
      4 C         -10.0907  -18.4391   23.0462 C.ar    1  UNL1        0.0000
      5 C          -9.3386  -19.7265   22.8815 C.ar    1  UNL1        0.0000
      6 C          -7.9309  -19.7118   22.3639 C.ar    1  UNL1        0.0001
      7 C         -11.4984  -18.4537   23.5639 C.ar    1  UNL1        0.0002
      8 C         -11.7742  -18.8811   24.9750 C.ar    1  UNL1        0.0031
      9 C         -13.1820  -18.8958   25.4927 C.ar    1  UNL1        0.0366
     10 C         -14.3140  -18.4831   24.5992 C.ar    1  UNL1        0.1337
     11 O         -15.7217  -18.4978   25.1169 O.3     1  UNL1       -0.5055
     12 C         -14.0381  -18.0557   23.1880 C.ar    1  UNL1        0.0366
     13 C         -12.6304  -18.0410   22.6704 C.ar    1  UNL1        0.0031
     14 H         -15.8940  -18.7648   25.9983 H       1  UNL1        0.2922
     15 C          -3.0518  -18.3659   20.4579 C.ar    1  UNL1       -0.0157
     16 C          -4.1556  -18.9299   19.6133 C.ar    1  UNL1       -0.0038
     17 C          -5.5634  -18.9445   20.1310 C.ar    1  UNL1        0.0019
     18 C          -5.8673  -18.3951   21.4933 C.ar    1  UNL1        0.0275
     19 C          -4.7635  -17.8310   22.3379 C.ar    1  UNL1        0.1398
     20 F          -5.0674  -17.2816   23.7001 F       1  UNL1       -0.2042
     21 C          -3.3557  -17.8164   21.8202 C.ar    1  UNL1        0.0257
     22 C          -1.6440  -18.3512   19.9402 C.3     1  UNL1        0.0509
     23 C          -0.1626  -18.5782   19.8781 C.3     1  UNL1        0.0100
     24 C          -0.9430  -19.0420   21.0723 C.3     1  UNL1        0.0100
     25 O          -1.0393  -18.0446   17.4322 O.co2   1  UNL1       -0.5489
     26 C          -1.8562  -17.6553   18.6285 C.2     1  UNL1        0.0534
     27 O          -2.8853  -16.5701   18.5131 O.co2   1  UNL1       -0.5489
@<TRIPOS>UNITY_ATOM_ATTR
25 1
charge -1
@<TRIPOS>BOND
     1    25    26   ar
     2    26    27   ar
     3    26    22    1
     4    22    15    1
     5    15    16   ar
     6    16    17   ar
     7    17    18   ar
     8    18     1    1
     9     1     2   ar
    10     2     3   ar
    11     3     4   ar
    12     4     7    1
    13     7     8   ar
    14     8     9   ar
    15     9    10   ar
    16    10    11    1
    17    10    12   ar
    18    12    13   ar
    19     4     5   ar
    20     5     6   ar
    21    18    19   ar
    22    19    20    1
    23    19    21   ar
    24    22    23    1
    25    23    24    1
    26    24    22    1
    27    21    15   ar
    28     6     1   ar
    29    13     7   ar
    30    11    14    1
@<TRIPOS>MOLECULE
*****
 27 30 0 0 0
SMALL
GASTEIGER

@<TRIPOS>ATOM
      1 C          -7.3397  -18.4321   22.0709 C.ar    1  UNL1        0.0022
      2 C          -8.0237  -19.7330   22.3704 C.ar    1  UNL1        0.0001
      3 C          -9.4358  -19.7389   22.8764 C.ar    1  UNL1        0.0000
      4 C         -10.1638  -18.4438   23.0828 C.ar    1  UNL1        0.0000
      5 C          -9.4798  -17.1428   22.7833 C.ar    1  UNL1        0.0000
      6 C          -8.0678  -17.1370   22.2773 C.ar    1  UNL1        0.0001
      7 C         -11.5759  -18.4496   23.5888 C.ar    1  UNL1        0.0002
      8 C         -12.7018  -18.0680   22.6742 C.ar    1  UNL1        0.0031
      9 C         -14.1140  -18.0738   23.1802 C.ar    1  UNL1        0.0366
     10 C         -14.4001  -18.4612   24.6008 C.ar    1  UNL1        0.1337
     11 O         -15.8121  -18.4670   25.1067 O.3     1  UNL1       -0.5055
     12 C         -13.2740  -18.8428   25.5154 C.ar    1  UNL1        0.0366
     13 C         -11.8620  -18.8370   25.0094 C.ar    1  UNL1        0.0031
     14 H         -16.5155  -18.2286   24.5354 H       1  UNL1        0.2922
     15 C          -3.1035  -18.4145   20.5530 C.ar    1  UNL1       -0.0157
     16 C          -3.4003  -17.9654   21.9530 C.ar    1  UNL1       -0.0038
     17 C          -4.8124  -17.9713   22.4589 C.ar    1  UNL1        0.0019
     18 C          -5.9276  -18.4263   21.5648 C.ar    1  UNL1        0.0275
     19 C          -5.6307  -18.8753   20.1648 C.ar    1  UNL1        0.1398
     20 F          -6.7459  -19.3303   19.2707 F       1  UNL1       -0.2042
     21 C          -4.2186  -18.8695   19.6589 C.ar    1  UNL1        0.0257
     22 C          -1.6913  -18.4086   20.0470 C.3     1  UNL1        0.0509
     23 C          -0.2143  -18.6633   19.9873 C.3     1  UNL1        0.0100
     24 C          -1.0139  -19.1568   21.1566 C.3     1  UNL1        0.0100
     25 O          -1.0429  -18.0019   17.5642 O.co2   1  UNL1       -0.5489
     26 C          -1.8785  -17.6584   18.7616 C.2     1  UNL1        0.0534
     27 O          -2.9012  -16.5647   18.6737 O.co2   1  UNL1       -0.5489
@<TRIPOS>UNITY_ATOM_ATTR
25 1
charge -1
@<TRIPOS>BOND
     1    25    26   ar
     2    26    27   ar
     3    26    22    1
     4    22    15    1
     5    15    16   ar
     6    16    17   ar
     7    17    18   ar
     8    18     1    1
     9     1     2   ar
    10     2     3   ar
    11     3     4   ar
    12     4     7    1
    13     7     8   ar
    14     8     9   ar
    15     9    10   ar
    16    10    11    1
    17    10    12   ar
    18    12    13   ar
    19     4     5   ar
    20     5     6   ar
    21    18    19   ar
    22    19    20    1
    23    19    21   ar
    24    22    23    1
    25    23    24    1
    26    24    22    1
    27    21    15   ar
    28     6     1   ar
    29    13     7   ar
    30    11    14    1
@<TRIPOS>MOLECULE
*****
 27 30 0 0 0
SMALL
GASTEIGER

@<TRIPOS>ATOM
      1 C          -7.3385  -18.4307   22.0706 C.ar    1  UNL1        0.0022
      2 C          -8.0598  -17.1350   22.2964 C.ar    1  UNL1        0.0001
      3 C          -9.4729  -17.1411   22.7998 C.ar    1  UNL1        0.0000
      4 C         -10.1645  -18.4428   23.0775 C.ar    1  UNL1        0.0000
      5 C          -9.4431  -19.7385   22.8517 C.ar    1  UNL1        0.0000
      6 C          -8.0302  -19.7324   22.3483 C.ar    1  UNL1        0.0001
      7 C         -11.5775  -18.4489   23.5809 C.ar    1  UNL1        0.0002
      8 C         -11.8659  -18.8361   25.0010 C.ar    1  UNL1        0.0031
      9 C         -13.2790  -18.8423   25.5045 C.ar    1  UNL1        0.0366
     10 C         -14.4034  -18.4612   24.5878 C.ar    1  UNL1        0.1337
     11 O         -15.8164  -18.4673   25.0912 O.3     1  UNL1       -0.5055
     12 C         -14.1149  -18.0739   23.1676 C.ar    1  UNL1        0.0366
     13 C         -12.7019  -18.0678   22.6642 C.ar    1  UNL1        0.0031
     14 H         -15.9966  -18.7091   25.9784 H       1  UNL1        0.2922
     15 C          -3.0996  -18.4125   20.5604 C.ar    1  UNL1       -0.0157
     16 C          -3.3990  -17.9635   21.9599 C.ar    1  UNL1       -0.0038
     17 C          -4.8120  -17.9695   22.4633 C.ar    1  UNL1        0.0019
     18 C          -5.9255  -18.4246   21.5672 C.ar    1  UNL1        0.0275
     19 C          -5.6260  -18.8736   20.1677 C.ar    1  UNL1        0.1398
     20 F          -6.7395  -19.3286   19.2715 F       1  UNL1       -0.2042
     21 C          -4.2130  -18.8675   19.6643 C.ar    1  UNL1        0.0257
     22 C          -1.6865  -18.4064   20.0570 C.3     1  UNL1        0.0509
     23 C          -0.2099  -18.6635   19.9985 C.3     1  UNL1        0.0100
     24 C          -1.0125  -19.1621   21.1636 C.3     1  UNL1        0.0100
     25 O          -2.8786  -16.5412   18.6968 O.co2   1  UNL1       -0.5489
     26 C          -1.8699  -17.6486   18.7756 C.2     1  UNL1        0.0534
     27 O          -1.0446  -17.9982   17.5728 O.co2   1  UNL1       -0.5489
@<TRIPOS>UNITY_ATOM_ATTR
25 1
charge -1
@<TRIPOS>BOND
     1    25    26   ar
     2    26    27   ar
     3    26    22    1
     4    22    15    1
     5    15    16   ar
     6    16    17   ar
     7    17    18   ar
     8    18     1    1
     9     1     2   ar
    10     2     3   ar
    11     3     4   ar
    12     4     7    1
    13     7     8   ar
    14     8     9   ar
    15     9    10   ar
    16    10    11    1
    17    10    12   ar
    18    12    13   ar
    19     4     5   ar
    20     5     6   ar
    21    18    19   ar
    22    19    20    1
    23    19    21   ar
    24    22    23    1
    25    23    24    1
    26    24    22    1
    27    21    15   ar
    28     6     1   ar
    29    13     7   ar
    30    11    14    1
@<TRIPOS>MOLECULE
*****
 27 30 0 0 0
SMALL
GASTEIGER

@<TRIPOS>ATOM
      1 C           5.2567   -0.7481   34.3055 C.ar    1  UNL1        0.0022
      2 C           6.6215   -0.6703   33.6880 C.ar    1  UNL1        0.0001
      3 C           7.0492   -1.6975   32.6820 C.ar    1  UNL1        0.0000
      4 C           6.1121   -2.8026   32.2937 C.ar    1  UNL1        0.0000
      5 C           4.7473   -2.8803   32.9113 C.ar    1  UNL1        0.0000
      6 C           4.3197   -1.8531   33.9172 C.ar    1  UNL1        0.0001
      7 C           6.5398   -3.8298   31.2878 C.ar    1  UNL1        0.0002
      8 C           6.4325   -3.5335   29.8213 C.ar    1  UNL1        0.0031
      9 C           6.8602   -4.5608   28.8153 C.ar    1  UNL1        0.0366
     10 C           7.3951   -5.8843   29.2759 C.ar    1  UNL1        0.1337
     11 O           7.8227   -6.9115   28.2700 O.3     1  UNL1       -0.5055
     12 C           7.5023   -6.1806   30.7425 C.ar    1  UNL1        0.0366
     13 C           7.0746   -5.1533   31.7484 C.ar    1  UNL1        0.0031
     14 H           7.7557   -6.7265   27.3539 H       1  UNL1        0.2922
     15 C           3.9736    2.3337   37.3232 C.ar    1  UNL1       -0.0157
     16 C           3.3533    2.3175   35.9576 C.ar    1  UNL1       -0.0038
     17 C           3.7810    1.2903   34.9517 C.ar    1  UNL1        0.0019
     18 C           4.8290    0.2792   35.3115 C.ar    1  UNL1        0.0275
     19 C           5.4493    0.2953   36.6771 C.ar    1  UNL1        0.1398
     20 F           6.4973   -0.7157   37.0368 F       1  UNL1       -0.2042
     21 C           5.0216    1.3226   37.6830 C.ar    1  UNL1        0.0257
     22 C           3.5459    3.3609   38.3292 C.3     1  UNL1        0.0509
     23 C           3.5906    4.5712   39.2141 C.3     1  UNL1        0.0100
     24 C           4.7578    4.2449   38.3302 C.3     1  UNL1        0.0100
     25 O           2.0416    1.7479   39.7023 O.co2   1  UNL1       -0.5489
     26 C           2.1855    2.8337   38.6774 C.2     1  UNL1        0.0534
     27 O           0.9689    3.3922   38.0007 O.co2   1  UNL1       -0.5489
@<TRIPOS>UNITY_ATOM_ATTR
25 1
charge -1
@<TRIPOS>BOND
     1    25    26   ar
     2    26    27   ar
     3    26    22    1
     4    22    15    1
     5    15    16   ar
     6    16    17   ar
     7    17    18   ar
     8    18     1    1
     9     1     2   ar
    10     2     3   ar
    11     3     4   ar
    12     4     7    1
    13     7     8   ar
    14     8     9   ar
    15     9    10   ar
    16    10    11    1
    17    10    12   ar
    18    12    13   ar
    19     4     5   ar
    20     5     6   ar
    21    18    19   ar
    22    19    20    1
    23    19    21   ar
    24    22    23    1
    25    23    24    1
    26    24    22    1
    27    21    15   ar
    28     6     1   ar
    29    13     7   ar
    30    11    14    1
@<TRIPOS>MOLECULE
*****
 27 30 0 0 0
SMALL
GASTEIGER

@<TRIPOS>ATOM
      1 C           0.6810    1.3323   22.8789 C.ar    1  UNL1        0.0022
      2 C           0.5628    0.9845   24.3332 C.ar    1  UNL1        0.0001
      3 C          -0.2666    1.8404   25.2441 C.ar    1  UNL1        0.0000
      4 C          -0.9779    3.0440   24.7005 C.ar    1  UNL1        0.0000
      5 C          -0.8597    3.3917   23.2461 C.ar    1  UNL1        0.0000
      6 C          -0.0303    2.5359   22.3353 C.ar    1  UNL1        0.0001
      7 C          -1.8073    3.8999   25.6113 C.ar    1  UNL1        0.0002
      8 C          -1.1866    5.0744   26.3079 C.ar    1  UNL1        0.0031
      9 C          -2.0161    5.9304   27.2187 C.ar    1  UNL1        0.0366
     10 C          -3.4661    5.6117   27.4328 C.ar    1  UNL1        0.1337
     11 O          -4.2955    6.4676   28.3436 O.3     1  UNL1       -0.5055
     12 C          -4.0867    4.4372   26.7362 C.ar    1  UNL1        0.0366
     13 C          -3.2573    3.5813   25.8254 C.ar    1  UNL1        0.0031
     14 H          -3.9078    7.2013   28.7787 H       1  UNL1        0.2922
     15 C           3.1693   -1.2353   20.1465 C.ar    1  UNL1       -0.0157
     16 C           3.6743   -0.8885   21.5157 C.ar    1  UNL1       -0.0038
     17 C           2.8449   -0.0326   22.4264 C.ar    1  UNL1        0.0019
     18 C           1.5104    0.4764   21.9681 C.ar    1  UNL1        0.0275
     19 C           1.0054    0.1295   20.5989 C.ar    1  UNL1        0.1398
     20 F          -0.3291    0.6386   20.1405 F       1  UNL1       -0.2042
     21 C           1.8348   -0.7263   19.6882 C.ar    1  UNL1        0.0257
     22 C           3.9987   -2.0912   19.2357 C.3     1  UNL1        0.0509
     23 C           4.6868   -3.3022   18.6788 C.3     1  UNL1        0.0100
     24 C           3.8798   -3.4110   19.9386 C.3     1  UNL1        0.0100
     25 O           4.0177   -1.2470   16.7786 O.co2   1  UNL1       -0.5489
     26 C           4.4056   -1.0686   18.2166 C.2     1  UNL1        0.0534
     27 O           5.2005    0.1326   18.6354 O.co2   1  UNL1       -0.5489
@<TRIPOS>UNITY_ATOM_ATTR
25 1
charge -1
@<TRIPOS>BOND
     1    25    26   ar
     2    26    27   ar
     3    26    22    1
     4    22    15    1
     5    15    16   ar
     6    16    17   ar
     7    17    18   ar
     8    18     1    1
     9     1     2   ar
    10     2     3   ar
    11     3     4   ar
    12     4     7    1
    13     7     8   ar
    14     8     9   ar
    15     9    10   ar
    16    10    11    1
    17    10    12   ar
    18    12    13   ar
    19     4     5   ar
    20     5     6   ar
    21    18    19   ar
    22    19    20    1
    23    19    21   ar
    24    22    23    1
    25    23    24    1
    26    24    22    1
    27    21    15   ar
    28     6     1   ar
    29    13     7   ar
    30    11    14    1
@<TRIPOS>MOLECULE
*****
 27 30 0 0 0
SMALL
GASTEIGER

@<TRIPOS>ATOM
      1 C           1.0039    1.0812   22.8374 C.ar    1  UNL1        0.0022
      2 C           0.8702    0.7849   24.3017 C.ar    1  UNL1        0.0001
      3 C           0.0083    1.6554   25.1674 C.ar    1  UNL1        0.0000
      4 C          -0.7199    2.8221   24.5687 C.ar    1  UNL1        0.0000
      5 C          -0.5861    3.1184   23.1043 C.ar    1  UNL1        0.0000
      6 C           0.2758    2.2479   22.2387 C.ar    1  UNL1        0.0001
      7 C          -1.5818    3.6926   25.4343 C.ar    1  UNL1        0.0002
      8 C          -3.0700    3.5047   25.4410 C.ar    1  UNL1        0.0031
      9 C          -3.9320    4.3752   26.3067 C.ar    1  UNL1        0.0366
     10 C          -3.3057    5.4335   27.1656 C.ar    1  UNL1        0.1337
     11 O          -4.1676    6.3040   28.0312 O.3     1  UNL1       -0.5055
     12 C          -1.8175    5.6214   27.1588 C.ar    1  UNL1        0.0366
     13 C          -0.9556    4.7510   26.2932 C.ar    1  UNL1        0.0031
     14 H          -5.0973    6.1867   28.0354 H       1  UNL1        0.2922
     15 C           3.5898   -1.5302   20.2404 C.ar    1  UNL1       -0.0157
     16 C           4.1503   -0.9319   21.4965 C.ar    1  UNL1       -0.0038
     17 C           3.2884   -0.0615   22.3621 C.ar    1  UNL1        0.0019
     18 C           1.8659    0.2107   21.9716 C.ar    1  UNL1        0.0275
     19 C           1.3053   -0.3876   20.7155 C.ar    1  UNL1        0.1398
     20 F          -0.1171   -0.1154   20.3251 F       1  UNL1       -0.2042
     21 C           2.1673   -1.2580   19.8499 C.ar    1  UNL1        0.0257
     22 C           4.4517   -2.4006   19.3747 C.3     1  UNL1        0.0509
     23 C           5.4740   -2.8009   18.3525 C.3     1  UNL1        0.0100
     24 C           5.2129   -1.3488   18.6234 C.3     1  UNL1        0.0100
     25 O           4.5226   -4.3439   21.0977 O.co2   1  UNL1       -0.5489
     26 C           3.9899   -3.7548   19.8253 C.2     1  UNL1        0.0534
     27 O           2.9952   -4.5198   19.0034 O.co2   1  UNL1       -0.5489
@<TRIPOS>UNITY_ATOM_ATTR
25 1
charge -1
@<TRIPOS>BOND
     1    25    26   ar
     2    26    27   ar
     3    26    22    1
     4    22    15    1
     5    15    16   ar
     6    16    17   ar
     7    17    18   ar
     8    18     1    1
     9     1     2   ar
    10     2     3   ar
    11     3     4   ar
    12     4     7    1
    13     7     8   ar
    14     8     9   ar
    15     9    10   ar
    16    10    11    1
    17    10    12   ar
    18    12    13   ar
    19     4     5   ar
    20     5     6   ar
    21    18    19   ar
    22    19    20    1
    23    19    21   ar
    24    22    23    1
    25    23    24    1
    26    24    22    1
    27    21    15   ar
    28     6     1   ar
    29    13     7   ar
    30    11    14    1
@<TRIPOS>MOLECULE
*****
 27 30 0 0 0
SMALL
GASTEIGER

@<TRIPOS>ATOM
      1 C           6.1800   -3.0906   23.6779 C.ar    1  UNL1        0.0022
      2 C           6.8013   -4.4475   23.8286 C.ar    1  UNL1        0.0001
      3 C           7.1015   -4.9874   25.1956 C.ar    1  UNL1        0.0000
      4 C           6.7803   -4.1703   26.4118 C.ar    1  UNL1        0.0000
      5 C           6.1589   -2.8133   26.2611 C.ar    1  UNL1        0.0000
      6 C           5.8588   -2.2735   24.8942 C.ar    1  UNL1        0.0001
      7 C           7.0804   -4.7101   27.7787 C.ar    1  UNL1        0.0002
      8 C           6.5463   -4.0125   28.9945 C.ar    1  UNL1        0.0031
      9 C           6.8464   -4.5523   30.3615 C.ar    1  UNL1        0.0366
     10 C           7.6807   -5.7896   30.5127 C.ar    1  UNL1        0.1337
     11 O           7.9809   -6.3294   31.8796 O.3     1  UNL1       -0.5055
     12 C           8.2149   -6.4872   29.2968 C.ar    1  UNL1        0.0366
     13 C           7.9147   -5.9474   27.9299 C.ar    1  UNL1        0.0031
     14 H           7.6472   -5.8937   32.6390 H       1  UNL1        0.2922
     15 C           5.2795   -1.4710   19.5772 C.ar    1  UNL1       -0.0157
     16 C           6.3056   -0.7988   20.4404 C.ar    1  UNL1       -0.0038
     17 C           6.6057   -1.3386   21.8073 C.ar    1  UNL1        0.0019
     18 C           5.8798   -2.5508   22.3110 C.ar    1  UNL1        0.0275
     19 C           4.8537   -3.2231   21.4478 C.ar    1  UNL1        0.1398
     20 F           4.1278   -4.4352   21.9515 F       1  UNL1       -0.2042
     21 C           4.5536   -2.6832   20.0809 C.ar    1  UNL1        0.0257
     22 C           4.9793   -0.9312   18.2102 C.3     1  UNL1        0.0509
     23 C           4.2090   -0.3475   17.0632 C.3     1  UNL1        0.0100
     24 C           3.5211   -0.6174   18.3686 C.3     1  UNL1        0.0100
     25 O           6.9974   -2.3996   17.4881 O.co2   1  UNL1       -0.5489
     26 C           6.3334   -1.0575   17.5773 C.2     1  UNL1        0.0534
     27 O           7.0234    0.1583   17.0335 O.co2   1  UNL1       -0.5489
@<TRIPOS>UNITY_ATOM_ATTR
25 1
charge -1
@<TRIPOS>BOND
     1    25    26   ar
     2    26    27   ar
     3    26    22    1
     4    22    15    1
     5    15    16   ar
     6    16    17   ar
     7    17    18   ar
     8    18     1    1
     9     1     2   ar
    10     2     3   ar
    11     3     4   ar
    12     4     7    1
    13     7     8   ar
    14     8     9   ar
    15     9    10   ar
    16    10    11    1
    17    10    12   ar
    18    12    13   ar
    19     4     5   ar
    20     5     6   ar
    21    18    19   ar
    22    19    20    1
    23    19    21   ar
    24    22    23    1
    25    23    24    1
    26    24    22    1
    27    21    15   ar
    28     6     1   ar
    29    13     7   ar
    30    11    14    1
@<TRIPOS>MOLECULE
*****
 27 30 0 0 0
SMALL
GASTEIGER

@<TRIPOS>ATOM
      1 C           6.7180   -4.0363   24.4951 C.ar    1  UNL1        0.0022
      2 C           5.5245   -3.1339   24.3900 C.ar    1  UNL1        0.0001
      3 C           5.0436   -2.6800   23.0436 C.ar    1  UNL1        0.0000
      4 C           5.7562   -3.1286   21.8023 C.ar    1  UNL1        0.0000
      5 C           6.9498   -4.0311   21.9074 C.ar    1  UNL1        0.0000
      6 C           7.4307   -4.4849   23.2537 C.ar    1  UNL1        0.0001
      7 C           5.2754   -2.6747   20.4559 C.ar    1  UNL1        0.0002
      8 C           6.0824   -2.9806   19.2291 C.ar    1  UNL1        0.0031
      9 C           5.6015   -2.5267   17.8826 C.ar    1  UNL1        0.0366
     10 C           4.3137   -1.7670   17.7631 C.ar    1  UNL1        0.1337
     11 O           3.8328   -1.3132   16.4167 O.3     1  UNL1       -0.5055
     12 C           3.5067   -1.4612   18.9900 C.ar    1  UNL1        0.0366
     13 C           3.9875   -1.9150   20.3364 C.ar    1  UNL1        0.0031
     14 H           4.3369   -1.5042   15.6503 H       1  UNL1        0.2922
     15 C           8.1606   -5.3981   28.5342 C.ar    1  UNL1       -0.0157
     16 C           7.2304   -6.2650   27.7386 C.ar    1  UNL1       -0.0038
     17 C           6.7495   -5.8111   26.3922 C.ar    1  UNL1        0.0019
     18 C           7.1989   -4.4902   25.8415 C.ar    1  UNL1        0.0275
     19 C           8.1292   -3.6233   26.6371 C.ar    1  UNL1        0.1398
     20 F           8.5785   -2.3024   26.0863 F       1  UNL1       -0.2042
     21 C           8.6100   -4.0772   27.9834 C.ar    1  UNL1        0.0257
     22 C           8.6416   -5.8520   29.8806 C.3     1  UNL1        0.0509
     23 C           9.3128   -6.6885   30.9292 C.3     1  UNL1        0.0100
     24 C           9.3568   -7.1116   29.4907 C.3     1  UNL1        0.0100
     25 O           9.0262   -3.8712   31.5173 O.co2   1  UNL1       -0.5489
     26 C           8.0933   -4.7501   30.7380 C.2     1  UNL1        0.0534
     27 O           6.6120   -4.5269   30.8160 O.co2   1  UNL1       -0.5489
@<TRIPOS>UNITY_ATOM_ATTR
25 1
charge -1
@<TRIPOS>BOND
     1    25    26   ar
     2    26    27   ar
     3    26    22    1
     4    22    15    1
     5    15    16   ar
     6    16    17   ar
     7    17    18   ar
     8    18     1    1
     9     1     2   ar
    10     2     3   ar
    11     3     4   ar
    12     4     7    1
    13     7     8   ar
    14     8     9   ar
    15     9    10   ar
    16    10    11    1
    17    10    12   ar
    18    12    13   ar
    19     4     5   ar
    20     5     6   ar
    21    18    19   ar
    22    19    20    1
    23    19    21   ar
    24    22    23    1
    25    23    24    1
    26    24    22    1
    27    21    15   ar
    28     6     1   ar
    29    13     7   ar
    30    11    14    1
