@<TRIPOS>MOLECULE
*****
 31 35 0 0 0
SMALL
GASTEIGER

@<TRIPOS>ATOM
      1 C          -8.0021  -18.9942   20.1273 C.3     1  UNL1        0.0749
      2 C          -8.3094  -18.1322   21.3157 C.3     1  UNL1        0.0444
      3 C          -9.7318  -17.9253   21.7444 C.ar    1  UNL1       -0.0101
      4 C         -10.8470  -18.5804   20.9846 C.ar    1  UNL1       -0.0091
      5 C         -12.2695  -18.3735   21.4133 C.ar    1  UNL1       -0.0032
      6 C         -12.5768  -17.5115   22.6017 C.ar    1  UNL1        0.0010
      7 C         -11.4616  -16.8564   23.3615 C.ar    1  UNL1        0.0142
      8 C         -10.0392  -17.0633   22.9329 C.ar    1  UNL1        0.0436
      9 C         -10.5396  -19.4424   19.7961 C.3     1  UNL1        0.0954
     10 N          -9.1172  -19.6493   19.3675 N.3     1  UNL1       -0.2934
     11 H          -9.0494  -19.3215   18.4040 H       1  UNL1        0.1236
     12 N          -8.9241  -16.4082   23.6927 N.pl3   1  UNL1       -0.3049
     13 C          -7.8522  -15.6609   22.9559 C.3     1  UNL1        0.1079
     14 C          -6.7371  -15.0058   23.7157 C.3     1  UNL1        0.0903
     15 N          -6.6938  -15.0980   25.2123 N.3     1  UNL1       -0.2946
     16 C          -7.7656  -15.8453   25.9490 C.3     1  UNL1        0.0903
     17 C          -8.8807  -16.5004   25.1892 C.3     1  UNL1        0.1079
     18 H          -6.7050  -14.1416   25.5667 H       1  UNL1        0.1233
     19 C          -6.5795  -19.2011   19.6985 C.3     1  UNL1        0.0886
     20 C          -5.6027  -21.3371   20.8091 C.3     1  UNL1        0.0899
     21 N          -5.6009  -19.8474   20.6337 N.3     1  UNL1       -0.2667
     22 C          -4.6203  -19.0040   21.3933 C.3     1  UNL1        0.0978
     23 C          -4.8762  -18.6693   22.8329 C.3     1  UNL1        0.0224
     24 C          -3.8956  -17.8259   23.5926 C.3     1  UNL1        0.0065
     25 C          -2.6591  -17.3171   22.9127 C.3     1  UNL1        0.0277
     26 C          -2.4032  -17.6518   21.4730 C.ar    1  UNL1       -0.0073
     27 C          -1.1668  -17.1430   20.7931 C.ar    1  UNL1       -0.0015
     28 C          -0.9109  -17.4777   19.3535 C.ar    1  UNL1        0.0203
     29 C          -1.8915  -18.3211   18.5939 C.ar    1  UNL1        0.0985
     30 N          -3.1279  -18.8299   19.2738 N.ar    1  UNL1       -0.2471
     31 C          -3.3838  -18.4952   20.7134 C.ar    1  UNL1        0.0695
@<TRIPOS>BOND
     1    20    21    1
     2    21    19    1
     3     1    19    1
     4     1     2    1
     5     2     3    1
     6     3     4   ar
     7     4     5   ar
     8     5     6   ar
     9     6     7   ar
    10     7     8   ar
    11     8    12    1
    12    12    13    1
    13    13    14    1
    14    14    15    1
    15    15    16    1
    16    16    17    1
    17     4     9    1
    18     9    10    1
    19    22    21    1
    20    22    23    1
    21    23    24    1
    22    24    25    1
    23    25    26    1
    24    26    27   ar
    25    27    28   ar
    26    28    29   ar
    27    29    30   ar
    28    30    31   ar
    29    10     1    1
    30    31    22    1
    31     8     3   ar
    32    17    12    1
    33    31    26   ar
    34    15    18    1
    35    10    11    1
@<TRIPOS>MOLECULE
*****
 31 35 0 0 0
SMALL
GASTEIGER

@<TRIPOS>ATOM
      1 C          -7.0541  -19.7484   21.4908 C.3     1  UNL1        0.0749
      2 C          -6.3907  -18.6785   22.3064 C.3     1  UNL1        0.0444
      3 C          -4.8987  -18.5273   22.2737 C.ar    1  UNL1       -0.0101
      4 C          -4.0701  -19.4460   21.4255 C.ar    1  UNL1       -0.0091
      5 C          -2.5781  -19.2947   21.3929 C.ar    1  UNL1       -0.0032
      6 C          -1.9147  -18.2248   22.2084 C.ar    1  UNL1        0.0010
      7 C          -2.7433  -17.3061   23.0566 C.ar    1  UNL1        0.0142
      8 C          -4.2352  -17.4573   23.0893 C.ar    1  UNL1        0.0436
      9 C          -4.7335  -20.5159   20.6100 C.3     1  UNL1        0.0954
     10 N          -6.2255  -20.6671   20.6427 N.3     1  UNL1       -0.2934
     11 H          -6.4183  -21.6165   20.9619 H       1  UNL1        0.1236
     12 N          -5.0638  -16.5386   23.9374 N.pl3   1  UNL1       -0.3049
     13 C          -6.2379  -15.8212   23.3398 C.3     1  UNL1        0.1079
     14 C          -7.0665  -14.9025   24.1880 C.3     1  UNL1        0.0903
     15 N          -6.7210  -14.7011   25.6338 N.3     1  UNL1       -0.2946
     16 C          -5.5470  -15.4185   26.2313 C.3     1  UNL1        0.0903
     17 C          -4.7184  -16.3372   25.3831 C.3     1  UNL1        0.1079
     18 H          -7.5410  -14.9777   26.1737 H       1  UNL1        0.1233
     19 C          -8.5461  -19.8997   21.5235 C.3     1  UNL1        0.0886
     20 C          -9.1149  -19.8567   18.9887 C.3     1  UNL1        0.0899
     21 N          -9.3775  -19.3821   20.3873 N.3     1  UNL1       -0.2667
     22 C         -10.4714  -18.3899   20.6495 C.3     1  UNL1        0.0978
     23 C         -10.8099  -17.3562   19.6166 C.3     1  UNL1        0.0224
     24 C         -11.9039  -16.3640   19.8789 C.3     1  UNL1        0.0065
     25 C         -12.6593  -16.4054   21.1741 C.3     1  UNL1        0.0277
     26 C         -12.3208  -17.4391   22.2071 C.ar    1  UNL1       -0.0073
     27 C         -13.0762  -17.4805   23.5023 C.ar    1  UNL1       -0.0015
     28 C         -12.7377  -18.5141   24.5352 C.ar    1  UNL1        0.0203
     29 C         -11.6437  -19.5063   24.2730 C.ar    1  UNL1        0.0985
     30 N         -10.8883  -19.4649   22.9778 N.ar    1  UNL1       -0.2471
     31 C         -11.2268  -18.4313   21.9448 C.ar    1  UNL1        0.0695
@<TRIPOS>BOND
     1    20    21    1
     2    21    19    1
     3     1    19    1
     4     1     2    1
     5     2     3    1
     6     3     4   ar
     7     4     5   ar
     8     5     6   ar
     9     6     7   ar
    10     7     8   ar
    11     8    12    1
    12    12    13    1
    13    13    14    1
    14    14    15    1
    15    15    16    1
    16    16    17    1
    17     4     9    1
    18     9    10    1
    19    22    21    1
    20    22    23    1
    21    23    24    1
    22    24    25    1
    23    25    26    1
    24    26    27   ar
    25    27    28   ar
    26    28    29   ar
    27    29    30   ar
    28    30    31   ar
    29    10     1    1
    30    31    22    1
    31     8     3   ar
    32    17    12    1
    33    31    26   ar
    34    15    18    1
    35    10    11    1
@<TRIPOS>MOLECULE
*****
 31 35 0 0 0
SMALL
GASTEIGER

@<TRIPOS>ATOM
      1 C          -8.9273  -19.8978   23.0341 C.3     1  UNL1        0.0749
      2 C          -9.7714  -18.7756   22.5065 C.3     1  UNL1        0.0444
      3 C         -11.0814  -18.4509   23.1609 C.ar    1  UNL1       -0.0101
      4 C         -11.5475  -19.2483   24.3428 C.ar    1  UNL1       -0.0091
      5 C         -12.8576  -18.9236   24.9972 C.ar    1  UNL1       -0.0032
      6 C         -13.7017  -17.8014   24.4696 C.ar    1  UNL1        0.0010
      7 C         -13.2356  -17.0040   23.2877 C.ar    1  UNL1        0.0142
      8 C         -11.9255  -17.3287   22.6334 C.ar    1  UNL1        0.0436
      9 C         -10.7035  -20.3705   24.8703 C.3     1  UNL1        0.0954
     10 N          -9.3934  -20.6952   24.2160 N.3     1  UNL1       -0.2934
     11 H          -9.4491  -21.6672   23.9119 H       1  UNL1        0.1236
     12 N         -11.4595  -16.5313   21.4515 N.pl3   1  UNL1       -0.3049
     13 C         -12.2686  -16.5197   20.1884 C.3     1  UNL1        0.1079
     14 C         -11.8026  -15.7223   19.0065 C.3     1  UNL1        0.0903
     15 N         -10.5274  -14.9364   19.0876 N.3     1  UNL1       -0.2946
     16 C          -9.7184  -14.9480   20.3507 C.3     1  UNL1        0.0903
     17 C         -10.1844  -15.7454   21.5326 C.3     1  UNL1        0.1079
     18 H         -10.7691  -13.9630   18.9017 H       1  UNL1        0.1233
     19 C          -7.6172  -20.2225   22.3797 C.3     1  UNL1        0.0886
     20 C          -7.0695  -19.0838   20.1096 C.3     1  UNL1        0.0899
     21 N          -6.8891  -19.1709   21.5962 N.3     1  UNL1       -0.2667
     22 C          -5.9807  -18.2063   22.2993 C.3     1  UNL1        0.0978
     23 C          -6.5600  -17.0768   23.0983 C.3     1  UNL1        0.0224
     24 C          -5.6515  -16.1122   23.8013 C.3     1  UNL1        0.0065
     25 C          -4.1637  -16.2772   23.7053 C.3     1  UNL1        0.0277
     26 C          -3.5843  -17.4068   22.9063 C.ar    1  UNL1       -0.0073
     27 C          -2.0965  -17.5718   22.8103 C.ar    1  UNL1       -0.0015
     28 C          -1.5172  -18.7013   22.0113 C.ar    1  UNL1        0.0203
     29 C          -2.4257  -19.6659   21.3083 C.ar    1  UNL1        0.0985
     30 N          -3.9135  -19.5009   21.4042 N.ar    1  UNL1       -0.2471
     31 C          -4.4928  -18.3714   22.2033 C.ar    1  UNL1        0.0695
@<TRIPOS>BOND
     1    20    21    1
     2    21    19    1
     3     1    19    1
     4     1     2    1
     5     2     3    1
     6     3     4   ar
     7     4     5   ar
     8     5     6   ar
     9     6     7   ar
    10     7     8   ar
    11     8    12    1
    12    12    13    1
    13    13    14    1
    14    14    15    1
    15    15    16    1
    16    16    17    1
    17     4     9    1
    18     9    10    1
    19    22    21    1
    20    22    23    1
    21    23    24    1
    22    24    25    1
    23    25    26    1
    24    26    27   ar
    25    27    28   ar
    26    28    29   ar
    27    29    30   ar
    28    30    31   ar
    29    10     1    1
    30    31    22    1
    31     8     3   ar
    32    17    12    1
    33    31    26   ar
    34    15    18    1
    35    10    11    1
@<TRIPOS>MOLECULE
*****
 31 35 0 0 0
SMALL
GASTEIGER

@<TRIPOS>ATOM
      1 C          -8.8408  -19.9128   22.9614 C.3     1  UNL1        0.0749
      2 C          -9.6991  -18.7933   22.4516 C.3     1  UNL1        0.0444
      3 C         -11.0004  -18.4781   23.1278 C.ar    1  UNL1       -0.0101
      4 C         -11.4433  -19.2825   24.3139 C.ar    1  UNL1       -0.0091
      5 C         -12.7446  -18.9673   24.9902 C.ar    1  UNL1       -0.0032
      6 C         -13.6029  -17.8477   24.4804 C.ar    1  UNL1        0.0010
      7 C         -13.1600  -17.0434   23.2943 C.ar    1  UNL1        0.0142
      8 C         -11.8587  -17.3585   22.6180 C.ar    1  UNL1        0.0436
      9 C         -10.5850  -20.4020   24.8237 C.3     1  UNL1        0.0954
     10 N          -9.2838  -20.7172   24.1475 N.3     1  UNL1       -0.2934
     11 H          -9.3391  -21.6884   23.8406 H       1  UNL1        0.1236
     12 N         -11.4158  -16.5542   21.4320 N.pl3   1  UNL1       -0.3049
     13 C         -10.1623  -15.7336   21.5080 C.3     1  UNL1        0.1079
     14 C          -9.7194  -14.9293   20.3220 C.3     1  UNL1        0.0903
     15 N         -10.5298  -14.9454   19.0598 N.3     1  UNL1       -0.2946
     16 C         -11.7832  -15.7660   18.9838 C.3     1  UNL1        0.0903
     17 C         -12.2261  -16.5703   20.1698 C.3     1  UNL1        0.1079
     18 H          -9.9138  -15.2794   18.3186 H       1  UNL1        0.1233
     19 C          -7.5395  -20.2280   22.2851 C.3     1  UNL1        0.0886
     20 C          -7.1721  -18.7826   20.1577 C.3     1  UNL1        0.0899
     21 N          -6.7899  -19.1492   21.5612 N.3     1  UNL1       -0.2667
     22 C          -5.6581  -18.4369   22.2406 C.3     1  UNL1        0.0978
     23 C          -4.2450  -18.8852   22.0124 C.3     1  UNL1        0.0224
     24 C          -3.1131  -18.1729   22.6918 C.3     1  UNL1        0.0065
     25 C          -3.3944  -17.0124   23.5995 C.3     1  UNL1        0.0277
     26 C          -4.8076  -16.5640   23.8277 C.ar    1  UNL1       -0.0073
     27 C          -5.0889  -15.4034   24.7354 C.ar    1  UNL1       -0.0015
     28 C          -6.5020  -14.9551   24.9636 C.ar    1  UNL1        0.0203
     29 C          -7.6338  -15.6674   24.2842 C.ar    1  UNL1        0.0985
     30 N          -7.3525  -16.8280   23.3765 N.ar    1  UNL1       -0.2471
     31 C          -5.9394  -17.2763   23.1483 C.ar    1  UNL1        0.0695
@<TRIPOS>BOND
     1    20    21    1
     2    21    19    1
     3     1    19    1
     4     1     2    1
     5     2     3    1
     6     3     4   ar
     7     4     5   ar
     8     5     6   ar
     9     6     7   ar
    10     7     8   ar
    11     8    12    1
    12    12    13    1
    13    13    14    1
    14    14    15    1
    15    15    16    1
    16    16    17    1
    17     4     9    1
    18     9    10    1
    19    22    21    1
    20    22    23    1
    21    23    24    1
    22    24    25    1
    23    25    26    1
    24    26    27   ar
    25    27    28   ar
    26    28    29   ar
    27    29    30   ar
    28    30    31   ar
    29    10     1    1
    30    31    22    1
    31     8     3   ar
    32    17    12    1
    33    31    26   ar
    34    15    18    1
    35    10    11    1
@<TRIPOS>MOLECULE
*****
 31 35 0 0 0
SMALL
GASTEIGER

@<TRIPOS>ATOM
      1 C          -8.7379  -19.2478   20.2918 C.3     1  UNL1        0.0749
      2 C          -8.8727  -18.1753   21.3318 C.3     1  UNL1        0.0444
      3 C         -10.2337  -17.7318   21.7797 C.ar    1  UNL1       -0.0101
      4 C         -11.4601  -18.3608   21.1878 C.ar    1  UNL1       -0.0091
      5 C         -12.8212  -17.9172   21.6358 C.ar    1  UNL1       -0.0032
      6 C         -12.9559  -16.8446   22.6757 C.ar    1  UNL1        0.0010
      7 C         -11.7296  -16.2156   23.2676 C.ar    1  UNL1        0.0142
      8 C         -10.3685  -16.6592   22.8197 C.ar    1  UNL1        0.0436
      9 C         -11.3254  -19.4333   20.1479 C.3     1  UNL1        0.0954
     10 N          -9.9643  -19.8769   19.6999 N.3     1  UNL1       -0.2934
     11 H          -9.9196  -19.7188   18.6932 H       1  UNL1        0.1236
     12 N          -9.1421  -16.0302   23.4116 N.pl3   1  UNL1       -0.3049
     13 C          -8.9296  -16.0532   24.8964 C.3     1  UNL1        0.1079
     14 C          -7.7033  -15.4242   25.4883 C.3     1  UNL1        0.0903
     15 N          -6.6894  -14.7721   24.5955 N.3     1  UNL1       -0.2946
     16 C          -6.9019  -14.7491   23.1108 C.3     1  UNL1        0.0903
     17 C          -8.1283  -15.3782   22.5189 C.3     1  UNL1        0.1079
     18 H          -5.8030  -15.2496   24.7587 H       1  UNL1        0.1233
     19 C          -7.3768  -19.6914   19.8438 C.3     1  UNL1        0.0886
     20 C          -6.6894  -20.7579   22.1110 C.3     1  UNL1        0.0899
     21 N          -6.3221  -20.0171   20.8594 N.3     1  UNL1       -0.2667
     22 C          -4.9001  -19.6020   20.6235 C.3     1  UNL1        0.0978
     23 C          -4.1342  -20.1728   19.4671 C.3     1  UNL1        0.0224
     24 C          -2.7122  -19.7576   19.2312 C.3     1  UNL1        0.0065
     25 C          -2.0562  -18.7717   20.1518 C.3     1  UNL1        0.0277
     26 C          -2.8222  -18.2008   21.3083 C.ar    1  UNL1       -0.0073
     27 C          -2.1662  -17.2148   22.2289 C.ar    1  UNL1       -0.0015
     28 C          -2.9321  -16.6440   23.3853 C.ar    1  UNL1        0.0203
     29 C          -4.3541  -17.0591   23.6212 C.ar    1  UNL1        0.0985
     30 N          -5.0101  -18.0451   22.7006 N.ar    1  UNL1       -0.2471
     31 C          -4.2441  -18.6159   21.5442 C.ar    1  UNL1        0.0695
@<TRIPOS>BOND
     1    20    21    1
     2    21    19    1
     3     1    19    1
     4     1     2    1
     5     2     3    1
     6     3     4   ar
     7     4     5   ar
     8     5     6   ar
     9     6     7   ar
    10     7     8   ar
    11     8    12    1
    12    12    13    1
    13    13    14    1
    14    14    15    1
    15    15    16    1
    16    16    17    1
    17     4     9    1
    18     9    10    1
    19    22    21    1
    20    22    23    1
    21    23    24    1
    22    24    25    1
    23    25    26    1
    24    26    27   ar
    25    27    28   ar
    26    28    29   ar
    27    29    30   ar
    28    30    31   ar
    29    10     1    1
    30    31    22    1
    31     8     3   ar
    32    17    12    1
    33    31    26   ar
    34    15    18    1
    35    10    11    1
@<TRIPOS>MOLECULE
*****
 31 35 0 0 0
SMALL
GASTEIGER

@<TRIPOS>ATOM
      1 C         -15.1193   -3.6683   19.5857 C.3     1  UNL1        0.0749
      2 C         -13.8049   -4.1456   19.0431 C.3     1  UNL1        0.0444
      3 C         -12.7926   -3.1545   18.5502 C.ar    1  UNL1       -0.0101
      4 C         -13.0947   -1.6861   18.5999 C.ar    1  UNL1       -0.0091
      5 C         -12.0823   -0.6950   18.1070 C.ar    1  UNL1       -0.0032
      6 C         -10.7679   -1.1723   17.5644 C.ar    1  UNL1        0.0010
      7 C         -10.4658   -2.6408   17.5147 C.ar    1  UNL1        0.0142
      8 C         -11.4781   -3.6318   18.0076 C.ar    1  UNL1        0.0436
      9 C         -14.4091   -1.2088   19.1425 C.3     1  UNL1        0.0954
     10 N         -15.4214   -2.1999   19.6353 N.3     1  UNL1       -0.2934
     11 H         -16.2678   -2.0546   19.0850 H       1  UNL1        0.1236
     12 N         -11.1759   -5.1003   17.9579 N.pl3   1  UNL1       -0.3049
     13 C         -10.2670   -5.7140   18.9813 C.3     1  UNL1        0.1079
     14 C          -9.9649   -7.1824   18.9316 C.3     1  UNL1        0.0903
     15 N         -10.5717   -8.0371   17.8586 N.3     1  UNL1       -0.2946
     16 C         -11.4806   -7.4234   16.8353 C.3     1  UNL1        0.0903
     17 C         -11.7827   -5.9549   16.8850 C.3     1  UNL1        0.1079
     18 H         -11.1084   -8.7650   18.3303 H       1  UNL1        0.1233
     19 C         -16.1316   -4.6594   20.0786 C.3     1  UNL1        0.0886
     20 C         -17.6284   -4.4025   17.9705 C.3     1  UNL1        0.0899
     21 N         -17.1530   -5.2208   19.1344 N.3     1  UNL1       -0.2667
     22 C         -17.6992   -6.6005   19.3540 C.3     1  UNL1        0.0978
     23 C         -19.0118   -6.7845   20.0561 C.3     1  UNL1        0.0224
     24 C         -19.5579   -8.1642   20.2757 C.3     1  UNL1        0.0065
     25 C         -18.7914   -9.3598   19.7932 C.3     1  UNL1        0.0277
     26 C         -17.4786   -9.1758   19.0911 C.ar    1  UNL1       -0.0073
     27 C         -16.7120  -10.3714   18.6086 C.ar    1  UNL1       -0.0015
     28 C         -15.3994  -10.1874   17.9066 C.ar    1  UNL1        0.0203
     29 C         -14.8533   -8.8077   17.6870 C.ar    1  UNL1        0.0985
     30 N         -15.6198   -7.6121   18.1694 N.ar    1  UNL1       -0.2471
     31 C         -16.9325   -7.7961   18.8715 C.ar    1  UNL1        0.0695
@<TRIPOS>BOND
     1    20    21    1
     2    21    19    1
     3     1    19    1
     4     1     2    1
     5     2     3    1
     6     3     4   ar
     7     4     5   ar
     8     5     6   ar
     9     6     7   ar
    10     7     8   ar
    11     8    12    1
    12    12    13    1
    13    13    14    1
    14    14    15    1
    15    15    16    1
    16    16    17    1
    17     4     9    1
    18     9    10    1
    19    22    21    1
    20    22    23    1
    21    23    24    1
    22    24    25    1
    23    25    26    1
    24    26    27   ar
    25    27    28   ar
    26    28    29   ar
    27    29    30   ar
    28    30    31   ar
    29    10     1    1
    30    31    22    1
    31     8     3   ar
    32    17    12    1
    33    31    26   ar
    34    15    18    1
    35    10    11    1
@<TRIPOS>MOLECULE
*****
 31 35 0 0 0
SMALL
GASTEIGER

@<TRIPOS>ATOM
      1 C          -8.7441  -15.8120   22.5858 C.3     1  UNL1        0.0749
      2 C          -7.3067  -16.1762   22.8116 C.3     1  UNL1        0.0444
      3 C          -6.7127  -16.0693   24.1848 C.ar    1  UNL1       -0.0101
      4 C          -7.5562  -15.5982   25.3322 C.ar    1  UNL1       -0.0091
      5 C          -6.9621  -15.4913   26.7055 C.ar    1  UNL1       -0.0032
      6 C          -5.5247  -15.8556   26.9313 C.ar    1  UNL1        0.0010
      7 C          -4.6812  -16.3267   25.7838 C.ar    1  UNL1        0.0142
      8 C          -5.2752  -16.4336   24.4106 C.ar    1  UNL1        0.0436
      9 C          -8.9936  -15.2339   25.1065 C.3     1  UNL1        0.0954
     10 N          -9.5876  -15.3408   23.7333 N.3     1  UNL1       -0.2934
     11 H          -9.9278  -14.4115   23.4865 H       1  UNL1        0.1236
     12 N          -4.4317  -16.9047   23.2632 N.pl3   1  UNL1       -0.3049
     13 C          -3.3543  -16.0190   22.7111 C.3     1  UNL1        0.1079
     14 C          -2.5108  -16.4902   21.5637 C.3     1  UNL1        0.0903
     15 N          -2.7448  -17.8470   20.9684 N.3     1  UNL1       -0.2946
     16 C          -3.8222  -18.7326   21.5205 C.3     1  UNL1        0.0903
     17 C          -4.6656  -18.2615   22.6679 C.3     1  UNL1        0.1079
     18 H          -1.8681  -18.3613   21.0541 H       1  UNL1        0.1233
     19 C          -9.3382  -15.9189   21.2126 C.3     1  UNL1        0.0886
     20 C         -11.0467  -17.0080   19.5862 C.3     1  UNL1        0.0899
     21 N         -10.5390  -16.7872   20.9804 N.3     1  UNL1       -0.2667
     22 C         -11.2322  -17.4349   22.1423 C.3     1  UNL1        0.0978
     23 C         -12.5701  -16.9292   22.5941 C.3     1  UNL1        0.0224
     24 C         -13.2633  -17.5769   23.7560 C.3     1  UNL1        0.0065
     25 C         -12.6186  -18.7302   24.4661 C.3     1  UNL1        0.0277
     26 C         -11.2806  -19.2359   24.0142 C.ar    1  UNL1       -0.0073
     27 C         -10.6359  -20.3892   24.7243 C.ar    1  UNL1       -0.0015
     28 C          -9.2979  -20.8948   24.2724 C.ar    1  UNL1        0.0203
     29 C          -8.6047  -20.2471   23.1105 C.ar    1  UNL1        0.0985
     30 N          -9.2495  -19.0938   22.4005 N.ar    1  UNL1       -0.2471
     31 C         -10.5874  -18.5882   22.8523 C.ar    1  UNL1        0.0695
@<TRIPOS>BOND
     1    20    21    1
     2    21    19    1
     3     1    19    1
     4     1     2    1
     5     2     3    1
     6     3     4   ar
     7     4     5   ar
     8     5     6   ar
     9     6     7   ar
    10     7     8   ar
    11     8    12    1
    12    12    13    1
    13    13    14    1
    14    14    15    1
    15    15    16    1
    16    16    17    1
    17     4     9    1
    18     9    10    1
    19    22    21    1
    20    22    23    1
    21    23    24    1
    22    24    25    1
    23    25    26    1
    24    26    27   ar
    25    27    28   ar
    26    28    29   ar
    27    29    30   ar
    28    30    31   ar
    29    10     1    1
    30    31    22    1
    31     8     3   ar
    32    17    12    1
    33    31    26   ar
    34    15    18    1
    35    10    11    1
@<TRIPOS>MOLECULE
*****
 31 35 0 0 0
SMALL
GASTEIGER

@<TRIPOS>ATOM
      1 C          -8.3809  -16.4381   22.2559 C.3     1  UNL1        0.0749
      2 C          -6.9331  -16.6485   22.5866 C.3     1  UNL1        0.0444
      3 C          -6.3746  -16.1245   23.8763 C.ar    1  UNL1       -0.0101
      4 C          -7.2639  -15.3900   24.8353 C.ar    1  UNL1       -0.0091
      5 C          -6.7053  -14.8660   26.1251 C.ar    1  UNL1       -0.0032
      6 C          -5.2574  -15.0765   26.4558 C.ar    1  UNL1        0.0010
      7 C          -4.3681  -15.8109   25.4968 C.ar    1  UNL1        0.0142
      8 C          -4.9266  -16.3349   24.2071 C.ar    1  UNL1        0.0436
      9 C          -8.7117  -15.1796   24.5046 C.3     1  UNL1        0.0954
     10 N          -9.2702  -15.7036   23.2149 N.3     1  UNL1       -0.2934
     11 H          -9.6486  -14.9018   22.7105 H       1  UNL1        0.1236
     12 N          -4.0373  -17.0694   23.2481 N.pl3   1  UNL1       -0.3049
     13 C          -3.0103  -16.3191   22.4527 C.3     1  UNL1        0.1079
     14 C          -2.1210  -17.0536   21.4937 C.3     1  UNL1        0.0903
     15 N          -2.2587  -18.5383   21.3301 N.3     1  UNL1       -0.2946
     16 C          -3.2856  -19.2885   22.1254 C.3     1  UNL1        0.0903
     17 C          -4.1750  -18.5540   23.0844 C.3     1  UNL1        0.1079
     18 H          -1.3524  -18.9453   21.5611 H       1  UNL1        0.1233
     19 C          -8.9395  -16.9621   20.9661 C.3     1  UNL1        0.0886
     20 C          -9.9421  -18.9419   19.6152 C.3     1  UNL1        0.0899
     21 N          -9.6191  -18.2988   20.9313 N.3     1  UNL1       -0.2667
     22 C          -9.9757  -18.9925   22.2126 C.3     1  UNL1        0.0978
     23 C          -9.0646  -20.0426   22.7757 C.3     1  UNL1        0.0224
     24 C          -9.4212  -20.7362   24.0569 C.3     1  UNL1        0.0065
     25 C         -10.6890  -20.3799   24.7751 C.3     1  UNL1        0.0277
     26 C         -11.6002  -19.3298   24.2119 C.ar    1  UNL1       -0.0073
     27 C         -12.8680  -18.9734   24.9300 C.ar    1  UNL1       -0.0015
     28 C         -13.7791  -17.9234   24.3669 C.ar    1  UNL1        0.0203
     29 C         -13.4225  -17.2297   23.0857 C.ar    1  UNL1        0.0985
     30 N         -12.1547  -17.5860   22.3675 N.ar    1  UNL1       -0.2471
     31 C         -11.2436  -18.6361   22.9307 C.ar    1  UNL1        0.0695
@<TRIPOS>BOND
     1    20    21    1
     2    21    19    1
     3     1    19    1
     4     1     2    1
     5     2     3    1
     6     3     4   ar
     7     4     5   ar
     8     5     6   ar
     9     6     7   ar
    10     7     8   ar
    11     8    12    1
    12    12    13    1
    13    13    14    1
    14    14    15    1
    15    15    16    1
    16    16    17    1
    17     4     9    1
    18     9    10    1
    19    22    21    1
    20    22    23    1
    21    23    24    1
    22    24    25    1
    23    25    26    1
    24    26    27   ar
    25    27    28   ar
    26    28    29   ar
    27    29    30   ar
    28    30    31   ar
    29    10     1    1
    30    31    22    1
    31     8     3   ar
    32    17    12    1
    33    31    26   ar
    34    15    18    1
    35    10    11    1
@<TRIPOS>MOLECULE
*****
 31 35 0 0 0
SMALL
GASTEIGER

@<TRIPOS>ATOM
      1 C          -7.6293  -15.2214   22.2700 C.3     1  UNL1        0.0749
      2 C          -8.5881  -16.3415   22.5454 C.3     1  UNL1        0.0444
      3 C          -9.8308  -16.4855   21.7178 C.ar    1  UNL1       -0.0101
      4 C         -10.1147  -15.5093   20.6148 C.ar    1  UNL1       -0.0091
      5 C         -11.3574  -15.6533   19.7872 C.ar    1  UNL1       -0.0032
      6 C         -12.3163  -16.7734   20.0626 C.ar    1  UNL1        0.0010
      7 C         -12.0324  -17.7496   21.1656 C.ar    1  UNL1        0.0142
      8 C         -10.7897  -17.6056   21.9932 C.ar    1  UNL1        0.0436
      9 C          -9.1558  -14.3892   20.3394 C.3     1  UNL1        0.0954
     10 N          -7.9131  -14.2452   21.1670 N.3     1  UNL1       -0.2934
     11 H          -7.9498  -13.3200   21.5948 H       1  UNL1        0.1236
     12 N         -10.5059  -18.5818   23.0961 N.pl3   1  UNL1       -0.3049
     13 C          -9.6341  -19.7745   22.8362 C.3     1  UNL1        0.1079
     14 C          -9.3503  -20.7506   23.9392 C.3     1  UNL1        0.0903
     15 N          -9.9382  -20.5341   25.3021 N.3     1  UNL1       -0.2946
     16 C         -10.8099  -19.3414   25.5620 C.3     1  UNL1        0.0903
     17 C         -11.0938  -18.3653   24.4590 C.3     1  UNL1        0.1079
     18 H          -9.1561  -20.4748   25.9542 H       1  UNL1        0.1233
     19 C          -6.3865  -15.0774   23.0976 C.3     1  UNL1        0.0886
     20 C          -5.5018  -16.3535   25.1806 C.3     1  UNL1        0.0899
     21 N          -5.7428  -16.2902   23.7013 N.3     1  UNL1       -0.2667
     22 C          -5.3400  -17.4398   22.8260 C.3     1  UNL1        0.0978
     23 C          -6.2638  -18.6083   22.6503 C.3     1  UNL1        0.0224
     24 C          -5.8610  -19.7579   21.7749 C.3     1  UNL1        0.0065
     25 C          -4.5344  -19.7389   21.0753 C.3     1  UNL1        0.0277
     26 C          -3.6104  -18.5703   21.2509 C.ar    1  UNL1       -0.0073
     27 C          -2.2838  -18.5513   20.5512 C.ar    1  UNL1       -0.0015
     28 C          -1.3600  -17.3827   20.7269 C.ar    1  UNL1        0.0203
     29 C          -1.7628  -16.2331   21.6022 C.ar    1  UNL1        0.0985
     30 N          -3.0894  -16.2521   22.3019 N.ar    1  UNL1       -0.2471
     31 C          -4.0132  -17.4207   22.1263 C.ar    1  UNL1        0.0695
@<TRIPOS>BOND
     1    20    21    1
     2    21    19    1
     3     1    19    1
     4     1     2    1
     5     2     3    1
     6     3     4   ar
     7     4     5   ar
     8     5     6   ar
     9     6     7   ar
    10     7     8   ar
    11     8    12    1
    12    12    13    1
    13    13    14    1
    14    14    15    1
    15    15    16    1
    16    16    17    1
    17     4     9    1
    18     9    10    1
    19    22    21    1
    20    22    23    1
    21    23    24    1
    22    24    25    1
    23    25    26    1
    24    26    27   ar
    25    27    28   ar
    26    28    29   ar
    27    29    30   ar
    28    30    31   ar
    29    10     1    1
    30    31    22    1
    31     8     3   ar
    32    17    12    1
    33    31    26   ar
    34    15    18    1
    35    10    11    1
