@<TRIPOS>MOLECULE
*****
 42 44 0 0 0
SMALL
GASTEIGER

@<TRIPOS>ATOM
      1 C         -16.7406   -2.3259   19.6467 C.3     1  UNL1        0.2120
      2 O         -15.6219   -1.6668   20.3978 O.3     1  UNL1       -0.3763
      3 H         -15.9373   -1.3935   21.2735 H       1  UNL1        0.2107
      4 C         -17.8592   -2.9850   18.8957 C.3     1  UNL1        0.4226
      5 F         -18.9780   -3.6441   18.1446 F       1  UNL1       -0.1675
      6 F         -17.7343   -1.9586   17.8090 F       1  UNL1       -0.1675
      7 F         -17.9841   -4.0113   19.9824 F       1  UNL1       -0.1675
      8 C         -17.4014   -0.9922   19.4607 C.3     1  UNL1        0.1269
      9 C         -17.6938    1.0300   21.0655 C.2     1  UNL1        0.2502
     10 O         -19.1129    0.6190   21.3248 O.2     1  UNL1       -0.2700
     11 N         -16.8380    0.2244   20.1335 N.am    1  UNL1       -0.2982
     12 H         -15.9066    0.4941   19.9633 H       1  UNL1        0.1498
     13 N         -18.1656    1.8928   24.1771 N.pl3   1  UNL1       -0.3424
     14 C         -17.3473    2.6431   23.1686 C.ar    1  UNL1        0.1327
     15 C         -17.1304    2.2465   21.7382 C.ar    1  UNL1        0.1053
     16 C         -16.2512    3.2800   21.0988 C.ar    1  UNL1        0.1278
     17 N         -15.9247    4.3155   22.1340 N.ar    1  UNL1       -0.1622
     18 N         -16.6022    3.9218   23.4131 N.ar    1  UNL1       -0.2163
     19 H         -18.6197    1.0580   23.9197 H       1  UNL1        0.1437
     20 H         -18.2486    2.2350   25.0965 H       1  UNL1        0.1437
     21 C         -16.5446    4.6745   24.7092 C.ar    1  UNL1        0.0843
     22 C         -15.2773    4.6906   25.5115 C.ar    1  UNL1        0.0215
     23 C         -15.2196    5.4434   26.8077 C.ar    1  UNL1        0.0312
     24 C         -16.4293    6.1802   27.3015 C.ar    1  UNL1        0.1402
     25 F         -16.3717    6.9330   28.5976 F       1  UNL1       -0.2042
     26 C         -17.6966    6.1641   26.4991 C.ar    1  UNL1        0.0312
     27 C         -17.7542    5.4113   25.2030 C.ar    1  UNL1        0.0215
     28 C         -16.0797   -3.6595   19.8328 C.3     1  UNL1        0.1308
     29 N         -14.7953   -3.9659   19.1212 N.am    1  UNL1       -0.2703
     30 C         -13.4889   -3.8532   19.8499 C.2     1  UNL1        0.2536
     31 O         -13.4671   -3.4342   21.2899 O.2     1  UNL1       -0.2697
     32 C         -12.2045   -4.1596   19.1383 C.ar    1  UNL1        0.1083
     33 C         -11.7399   -5.5797   19.0074 C.ar    1  UNL1        0.1467
     34 F         -12.5598   -6.6937   19.5880 F       1  UNL1       -0.2039
     35 C         -10.4554   -5.8861   18.2958 C.ar    1  UNL1        0.0299
     36 C          -9.6356   -4.7723   17.7152 C.ar    1  UNL1        0.0046
     37 C         -10.1001   -3.3520   17.8461 C.ar    1  UNL1        0.0299
     38 C         -11.3846   -3.0457   18.5577 C.ar    1  UNL1        0.1467
     39 F         -11.8491   -1.6255   18.6886 F       1  UNL1       -0.2039
     40 C         -14.8172   -4.3849   17.6812 C.3     1  UNL1        0.1319
     41 C         -15.3109   -5.7504   17.3049 C.3     1  UNL1        0.2146
     42 F         -14.3575   -6.9078   17.2640 F       1  UNL1       -0.2324
@<TRIPOS>BOND
     1    13    14    1
     2    14    15   ar
     3    15     9    1
     4     9    10    2
     5     9    11   am
     6    11     8    1
     7     8     1    1
     8     1     2    1
     9     1    28    1
    10    28    29    1
    11    29    40    1
    12    40    41    1
    13    41    42    1
    14    29    30   am
    15    30    31    2
    16    30    32    1
    17    32    33   ar
    18    33    34    1
    19    33    35   ar
    20    35    36   ar
    21    36    37   ar
    22    37    38   ar
    23    38    39    1
    24     1     4    1
    25     4     5    1
    26     4     6    1
    27     4     7    1
    28    15    16   ar
    29    16    17   ar
    30    17    18   ar
    31    18    21    1
    32    21    22   ar
    33    22    23   ar
    34    23    24   ar
    35    24    25    1
    36    24    26   ar
    37    26    27   ar
    38    18    14   ar
    39    27    21   ar
    40    38    32   ar
    41    13    19    1
    42    13    20    1
    43    11    12    1
    44     2     3    1
@<TRIPOS>MOLECULE
*****
 42 44 0 0 0
SMALL
GASTEIGER

@<TRIPOS>ATOM
      1 C         -11.3221  -19.1590   22.6241 C.3     1  UNL1        0.2120
      2 O         -10.1538  -19.7943   23.3179 O.3     1  UNL1       -0.3763
      3 H          -9.3295  -19.4938   22.9041 H       1  UNL1        0.2107
      4 C         -12.4904  -18.5238   21.9302 C.3     1  UNL1        0.4226
      5 F         -13.6588  -17.8884   21.2364 F       1  UNL1       -0.1675
      6 F         -11.8018  -18.7000   20.6094 F       1  UNL1       -0.1675
      7 F         -13.1790  -18.3475   23.2511 F       1  UNL1       -0.1675
      8 C         -11.0984  -20.0460   21.4353 C.3     1  UNL1        0.1269
      9 C          -8.6613  -19.3593   20.8530 C.2     1  UNL1        0.2502
     10 O          -9.0141  -17.9184   21.0757 O.2     1  UNL1       -0.2700
     11 N          -9.7034  -20.4230   21.0328 N.am    1  UNL1       -0.2982
     12 H          -9.4719  -21.3687   20.8866 H       1  UNL1        0.1498
     13 N          -5.9747  -17.5726   21.3418 N.pl3   1  UNL1       -0.3424
     14 C          -6.0314  -18.9150   20.6751 C.ar    1  UNL1        0.1327
     15 C          -7.2664  -19.7363   20.4504 C.ar    1  UNL1        0.1053
     16 C          -6.8615  -21.0008   19.7525 C.ar    1  UNL1        0.1278
     17 N          -5.3763  -20.9611   19.5458 N.ar    1  UNL1       -0.1622
     18 N          -4.8633  -19.6720   20.1160 N.ar    1  UNL1       -0.2163
     19 H          -6.8002  -17.1547   21.6780 H       1  UNL1        0.1437
     20 H          -5.1119  -17.1094   21.4432 H       1  UNL1        0.1437
     21 C          -3.4333  -19.2193   20.1255 C.ar    1  UNL1        0.0843
     22 C          -2.9012  -18.3914   18.9936 C.ar    1  UNL1        0.0215
     23 C          -1.4712  -17.9387   19.0030 C.ar    1  UNL1        0.0312
     24 C          -0.5732  -18.3139   20.1445 C.ar    1  UNL1        0.1402
     25 F           0.8568  -17.8612   20.1540 F       1  UNL1       -0.2042
     26 C          -1.1054  -19.1418   21.2765 C.ar    1  UNL1        0.0312
     27 C          -2.5355  -19.5945   21.2670 C.ar    1  UNL1        0.0215
     28 C         -11.5458  -18.2721   23.8128 C.3     1  UNL1        0.1308
     29 N         -10.4854  -17.2972   24.2314 N.am    1  UNL1       -0.2703
     30 C          -9.4539  -17.6998   25.2435 C.2     1  UNL1        0.2536
     31 O          -9.4830  -19.0770   25.8369 O.2     1  UNL1       -0.2697
     32 C          -8.3935  -16.7250   25.6621 C.ar    1  UNL1        0.1083
     33 C          -8.2774  -16.3147   27.1002 C.ar    1  UNL1        0.1467
     34 F          -9.2218  -16.8792   28.1198 F       1  UNL1       -0.2039
     35 C          -7.2170  -15.3399   27.5187 C.ar    1  UNL1        0.0299
     36 C          -6.2726  -14.7753   26.4992 C.ar    1  UNL1        0.0046
     37 C          -6.3887  -15.1856   25.0611 C.ar    1  UNL1        0.0299
     38 C          -7.4491  -16.1604   24.6425 C.ar    1  UNL1        0.1467
     39 F          -7.5652  -16.5707   23.2044 F       1  UNL1       -0.2039
     40 C         -10.4563  -15.9200   23.6380 C.3     1  UNL1        0.1319
     41 C         -11.3682  -15.5751   22.4981 C.3     1  UNL1        0.2146
     42 F         -12.8360  -15.3858   22.7426 F       1  UNL1       -0.2324
@<TRIPOS>BOND
     1    13    14    1
     2    14    15   ar
     3    15     9    1
     4     9    10    2
     5     9    11   am
     6    11     8    1
     7     8     1    1
     8     1     2    1
     9     1    28    1
    10    28    29    1
    11    29    40    1
    12    40    41    1
    13    41    42    1
    14    29    30   am
    15    30    31    2
    16    30    32    1
    17    32    33   ar
    18    33    34    1
    19    33    35   ar
    20    35    36   ar
    21    36    37   ar
    22    37    38   ar
    23    38    39    1
    24     1     4    1
    25     4     5    1
    26     4     6    1
    27     4     7    1
    28    15    16   ar
    29    16    17   ar
    30    17    18   ar
    31    18    21    1
    32    21    22   ar
    33    22    23   ar
    34    23    24   ar
    35    24    25    1
    36    24    26   ar
    37    26    27   ar
    38    18    14   ar
    39    27    21   ar
    40    38    32   ar
    41    13    19    1
    42    13    20    1
    43    11    12    1
    44     2     3    1
@<TRIPOS>MOLECULE
*****
 42 44 0 0 0
SMALL
GASTEIGER

@<TRIPOS>ATOM
      1 C           4.3502   -3.2827   20.3397 C.3     1  UNL1        0.2120
      2 O           4.2320   -2.2524   21.4234 O.3     1  UNL1       -0.3763
      3 H           4.9873   -1.6456   21.3764 H       1  UNL1        0.2107
      4 C           4.4684   -4.3129   19.2559 C.3     1  UNL1        0.4226
      5 F           4.5867   -5.3433   18.1721 F       1  UNL1       -0.1675
      6 F           2.9854   -4.2546   19.0387 F       1  UNL1       -0.1675
      7 F           5.9514   -4.3713   19.4732 F       1  UNL1       -0.1675
      8 C           5.4696   -3.9425   21.0890 C.3     1  UNL1        0.1269
      9 C           6.7565   -4.3520   23.3086 C.2     1  UNL1        0.2502
     10 O           7.7589   -5.1907   22.5726 O.2     1  UNL1       -0.2700
     11 N           5.6118   -3.7279   22.5668 N.am    1  UNL1       -0.2982
     12 H           4.9539   -3.1774   23.0499 H       1  UNL1        0.1498
     13 N           7.6839   -6.5931   25.4918 N.pl3   1  UNL1       -0.3424
     14 C           7.3250   -5.1675   25.7899 C.ar    1  UNL1        0.1327
     15 C           6.8987   -4.1374   24.7863 C.ar    1  UNL1        0.1053
     16 C           6.6396   -2.8549   25.5199 C.ar    1  UNL1        0.1278
     17 N           6.9058   -3.0924   26.9769 N.ar    1  UNL1       -0.1622
     18 N           7.3293   -4.5217   27.1437 N.ar    1  UNL1       -0.2163
     19 H           7.6503   -6.9259   24.5659 H       1  UNL1        0.1437
     20 H           7.9529   -7.1960   26.2222 H       1  UNL1        0.1437
     21 C           7.6934   -5.1882   28.4372 C.ar    1  UNL1        0.0843
     22 C           6.7392   -5.1520   29.5941 C.ar    1  UNL1        0.0215
     23 C           7.1032   -5.8184   30.8877 C.ar    1  UNL1        0.0312
     24 C           8.4214   -6.5211   31.0244 C.ar    1  UNL1        0.1402
     25 F           8.7854   -7.1876   32.3180 F       1  UNL1       -0.2042
     26 C           9.3755   -6.5573   29.8675 C.ar    1  UNL1        0.0312
     27 C           9.0115   -5.8908   28.5740 C.ar    1  UNL1        0.0215
     28 C           3.2308   -2.6229   19.5903 C.3     1  UNL1        0.1308
     29 N           3.3785   -1.2082   19.1141 N.am    1  UNL1       -0.2703
     30 C           2.8383   -0.0785   19.9400 C.2     1  UNL1        0.2536
     31 O           2.1504   -0.3636   21.2421 O.2     1  UNL1       -0.2697
     32 C           2.9860    1.3362   19.4637 C.ar    1  UNL1        0.1083
     33 C           1.9067    1.9644   18.6329 C.ar    1  UNL1        0.1467
     34 F           0.6796    1.1780   18.2783 F       1  UNL1       -0.2039
     35 C           2.0544    3.3791   18.1567 C.ar    1  UNL1        0.0299
     36 C           3.2814    4.1656   18.5113 C.ar    1  UNL1        0.0046
     37 C           4.3608    3.5374   19.3422 C.ar    1  UNL1        0.0299
     38 C           4.2131    2.1227   19.8184 C.ar    1  UNL1        0.1467
     39 F           5.2925    1.4945   20.6492 F       1  UNL1       -0.2039
     40 C           4.0665   -0.9231   17.8120 C.3     1  UNL1        0.1319
     41 C           5.5553   -0.7443   17.7737 C.3     1  UNL1        0.2146
     42 F           6.4580   -1.9101   18.0497 F       1  UNL1       -0.2324
@<TRIPOS>BOND
     1    13    14    1
     2    14    15   ar
     3    15     9    1
     4     9    10    2
     5     9    11   am
     6    11     8    1
     7     8     1    1
     8     1     2    1
     9     1    28    1
    10    28    29    1
    11    29    40    1
    12    40    41    1
    13    41    42    1
    14    29    30   am
    15    30    31    2
    16    30    32    1
    17    32    33   ar
    18    33    34    1
    19    33    35   ar
    20    35    36   ar
    21    36    37   ar
    22    37    38   ar
    23    38    39    1
    24     1     4    1
    25     4     5    1
    26     4     6    1
    27     4     7    1
    28    15    16   ar
    29    16    17   ar
    30    17    18   ar
    31    18    21    1
    32    21    22   ar
    33    22    23   ar
    34    23    24   ar
    35    24    25    1
    36    24    26   ar
    37    26    27   ar
    38    18    14   ar
    39    27    21   ar
    40    38    32   ar
    41    13    19    1
    42    13    20    1
    43    11    12    1
    44     2     3    1
@<TRIPOS>MOLECULE
*****
 42 44 0 0 0
SMALL
GASTEIGER

@<TRIPOS>ATOM
      1 C           7.4675   -1.9645   20.2325 C.3     1  UNL1        0.2120
      2 O           8.0556   -1.4907   21.5285 O.3     1  UNL1       -0.3763
      3 H           9.0235   -1.5282   21.4772 H       1  UNL1        0.2107
      4 C           6.8794   -2.4384   18.9365 C.3     1  UNL1        0.4226
      5 F           6.2912   -2.9123   17.6405 F       1  UNL1       -0.1675
      6 F           7.8240   -1.5498   18.1829 F       1  UNL1       -0.1675
      7 F           5.9347   -3.3270   19.6901 F       1  UNL1       -0.1675
      8 C           7.8542   -3.3734   20.5722 C.3     1  UNL1        0.1269
      9 C           7.3063   -4.2619   22.9514 C.2     1  UNL1        0.2502
     10 O           5.8768   -4.4668   22.5457 O.2     1  UNL1       -0.2700
     11 N           8.2950   -3.7152   21.9647 N.am    1  UNL1       -0.2982
     12 H           9.2332   -3.5808   22.2309 H       1  UNL1        0.1498
     13 N           5.7903   -3.3991   25.7094 N.pl3   1  UNL1       -0.3424
     14 C           7.0503   -4.2071   25.6116 C.ar    1  UNL1        0.1327
     15 C           7.7471   -4.6037   24.3438 C.ar    1  UNL1        0.1053
     16 C           8.9622   -5.4020   24.7130 C.ar    1  UNL1        0.1278
     17 N           9.0163   -5.4989   26.2089 N.ar    1  UNL1       -0.1622
     18 N           7.8347   -4.7603   26.7643 N.ar    1  UNL1       -0.2163
     19 H           5.3461   -3.0790   24.8912 H       1  UNL1        0.1437
     20 H           5.4076   -3.1890   26.5918 H       1  UNL1        0.1437
     21 C           7.4968   -4.6028   28.2171 C.ar    1  UNL1        0.0843
     22 C           7.3835   -3.2324   28.8164 C.ar    1  UNL1        0.0215
     23 C           7.0456   -3.0747   30.2694 C.ar    1  UNL1        0.0312
     24 C           6.8209   -4.2876   31.1230 C.ar    1  UNL1        0.1402
     25 F           6.4830   -4.1300   32.5759 F       1  UNL1       -0.2042
     26 C           6.9342   -5.6579   30.5237 C.ar    1  UNL1        0.0312
     27 C           7.2722   -5.8155   29.0707 C.ar    1  UNL1        0.0215
     28 C           7.0808   -0.5556   19.8928 C.3     1  UNL1        0.1308
     29 N           5.6344   -0.1586   19.8744 N.am    1  UNL1       -0.2703
     30 C           4.7448   -0.5124   21.0292 C.2     1  UNL1        0.2536
     31 O           5.3015   -1.2632   22.2023 O.2     1  UNL1       -0.2697
     32 C           3.2984   -0.1153   21.0107 C.ar    1  UNL1        0.1083
     33 C           2.2868   -0.9978   20.3415 C.ar    1  UNL1        0.1467
     34 F           2.7217   -2.2774   19.6906 F       1  UNL1       -0.2039
     35 C           0.8405   -0.6007   20.3230 C.ar    1  UNL1        0.0299
     36 C           0.4057    0.6789   20.9739 C.ar    1  UNL1        0.0046
     37 C           1.4172    1.5614   21.6432 C.ar    1  UNL1        0.0299
     38 C           2.8636    1.1643   21.6616 C.ar    1  UNL1        0.1467
     39 F           3.8751    2.0468   22.3309 F       1  UNL1       -0.2039
     40 C           5.0777    0.5923   18.7013 C.3     1  UNL1        0.1319
     41 C           4.5449   -0.1566   17.5159 C.3     1  UNL1        0.2146
     42 F           3.0731   -0.1531   17.2262 F       1  UNL1       -0.2324
@<TRIPOS>BOND
     1    13    14    1
     2    14    15   ar
     3    15     9    1
     4     9    10    2
     5     9    11   am
     6    11     8    1
     7     8     1    1
     8     1     2    1
     9     1    28    1
    10    28    29    1
    11    29    40    1
    12    40    41    1
    13    41    42    1
    14    29    30   am
    15    30    31    2
    16    30    32    1
    17    32    33   ar
    18    33    34    1
    19    33    35   ar
    20    35    36   ar
    21    36    37   ar
    22    37    38   ar
    23    38    39    1
    24     1     4    1
    25     4     5    1
    26     4     6    1
    27     4     7    1
    28    15    16   ar
    29    16    17   ar
    30    17    18   ar
    31    18    21    1
    32    21    22   ar
    33    22    23   ar
    34    23    24   ar
    35    24    25    1
    36    24    26   ar
    37    26    27   ar
    38    18    14   ar
    39    27    21   ar
    40    38    32   ar
    41    13    19    1
    42    13    20    1
    43    11    12    1
    44     2     3    1
@<TRIPOS>MOLECULE
*****
 42 44 0 0 0
SMALL
GASTEIGER

@<TRIPOS>ATOM
      1 C           5.6303   -3.3250   20.2699 C.3     1  UNL1        0.2120
      2 O           5.0351   -3.7851   21.5676 O.3     1  UNL1       -0.3763
      3 H           5.3132   -3.1888   22.2803 H       1  UNL1        0.2107
      4 C           6.2255   -2.8649   18.9722 C.3     1  UNL1        0.4226
      5 F           6.8208   -2.4048   17.6745 F       1  UNL1       -0.1675
      6 F           5.3782   -3.8569   18.2319 F       1  UNL1       -0.1675
      7 F           7.0728   -1.8730   19.7126 F       1  UNL1       -0.1675
      8 C           6.9791   -3.8036   20.7189 C.3     1  UNL1        0.1269
      9 C           8.0282   -5.1274   22.6930 C.2     1  UNL1        0.2502
     10 O           8.4745   -6.1958   21.7393 O.2     1  UNL1       -0.2700
     11 N           7.2806   -3.9313   22.1828 N.am    1  UNL1       -0.2982
     12 H           6.9877   -3.2301   22.8087 H       1  UNL1        0.1498
     13 N           6.1748   -4.0140   25.1372 N.pl3   1  UNL1       -0.3424
     14 C           7.4777   -4.7433   25.2804 C.ar    1  UNL1        0.1327
     15 C           8.3297   -5.2551   24.1568 C.ar    1  UNL1        0.1053
     16 C           9.5359   -5.9170   24.7541 C.ar    1  UNL1        0.1278
     17 N           9.4295   -5.8143   26.2469 N.ar    1  UNL1       -0.1622
     18 N           8.1574   -5.0889   26.5721 N.ar    1  UNL1       -0.2163
     19 H           5.8078   -3.8330   24.2418 H       1  UNL1        0.1437
     20 H           5.6867   -3.7162   25.9387 H       1  UNL1        0.1437
     21 C           7.6536   -4.7658   27.9474 C.ar    1  UNL1        0.0843
     22 C           7.4599   -5.8627   28.9521 C.ar    1  UNL1        0.0215
     23 C           6.9561   -5.5397   30.3275 C.ar    1  UNL1        0.0312
     24 C           6.6459   -4.1196   30.6983 C.ar    1  UNL1        0.1402
     25 F           6.1421   -3.7965   32.0737 F       1  UNL1       -0.2042
     26 C           6.8396   -3.0227   29.6936 C.ar    1  UNL1        0.0312
     27 C           7.3435   -3.3458   28.3182 C.ar    1  UNL1        0.0215
     28 C           4.2815   -2.8465   19.8209 C.3     1  UNL1        0.1308
     29 N           3.9774   -1.3778   19.7941 N.am    1  UNL1       -0.2703
     30 C           3.6877   -0.6956   18.4900 C.2     1  UNL1        0.2536
     31 O           3.7020   -1.4819   17.2127 O.2     1  UNL1       -0.2697
     32 C           3.3836    0.7730   18.4632 C.ar    1  UNL1        0.1083
     33 C           4.4902    1.7644   18.2570 C.ar    1  UNL1        0.1467
     34 F           5.9009    1.2872   18.0777 F       1  UNL1       -0.2039
     35 C           4.1861    3.2330   18.2303 C.ar    1  UNL1        0.0299
     36 C           2.7754    3.7102   18.4096 C.ar    1  UNL1        0.0046
     37 C           1.6687    2.7188   18.6158 C.ar    1  UNL1        0.0299
     38 C           1.9728    1.2502   18.6426 C.ar    1  UNL1        0.1467
     39 F           0.8662    0.2588   18.8488 F       1  UNL1       -0.2039
     40 C           3.9631   -0.5915   21.0714 C.3     1  UNL1        0.1319
     41 C           2.8067   -0.7197   22.0180 C.3     1  UNL1        0.2146
     42 F           1.5256    0.0095   21.7403 F       1  UNL1       -0.2324
@<TRIPOS>BOND
     1    13    14    1
     2    14    15   ar
     3    15     9    1
     4     9    10    2
     5     9    11   am
     6    11     8    1
     7     8     1    1
     8     1     2    1
     9     1    28    1
    10    28    29    1
    11    29    40    1
    12    40    41    1
    13    41    42    1
    14    29    30   am
    15    30    31    2
    16    30    32    1
    17    32    33   ar
    18    33    34    1
    19    33    35   ar
    20    35    36   ar
    21    36    37   ar
    22    37    38   ar
    23    38    39    1
    24     1     4    1
    25     4     5    1
    26     4     6    1
    27     4     7    1
    28    15    16   ar
    29    16    17   ar
    30    17    18   ar
    31    18    21    1
    32    21    22   ar
    33    22    23   ar
    34    23    24   ar
    35    24    25    1
    36    24    26   ar
    37    26    27   ar
    38    18    14   ar
    39    27    21   ar
    40    38    32   ar
    41    13    19    1
    42    13    20    1
    43    11    12    1
    44     2     3    1
@<TRIPOS>MOLECULE
*****
 42 44 0 0 0
SMALL
GASTEIGER

@<TRIPOS>ATOM
      1 C           4.9810   -2.6340   19.8403 C.3     1  UNL1        0.2120
      2 O           5.2105   -1.3710   20.6162 O.3     1  UNL1       -0.3763
      3 H           5.7405   -0.7567   20.0846 H       1  UNL1        0.2107
      4 C           4.7516   -3.8970   19.0643 C.3     1  UNL1        0.4226
      5 F           4.5222   -5.1601   18.2883 F       1  UNL1       -0.1675
      6 F           3.7880   -4.3666   20.1135 F       1  UNL1       -0.1675
      7 F           5.7153   -3.4275   18.0151 F       1  UNL1       -0.1675
      8 C           6.4146   -3.0228   20.0493 C.3     1  UNL1        0.1269
      9 C           7.0185   -3.5105   22.5287 C.2     1  UNL1        0.2502
     10 O           6.8966   -2.0494   22.8457 O.2     1  UNL1       -0.2700
     11 N           6.7775   -3.9972   21.1305 N.am    1  UNL1       -0.2982
     12 H           6.8574   -4.9561   20.9225 H       1  UNL1        0.1498
     13 N           6.7118   -3.0147   25.7396 N.pl3   1  UNL1       -0.3424
     14 C           7.2404   -4.2569   25.0858 C.ar    1  UNL1        0.1327
     15 C           7.3813   -4.4848   23.6099 C.ar    1  UNL1        0.1053
     16 C           7.9488   -5.8581   23.4051 C.ar    1  UNL1        0.1278
     17 N           8.1587   -6.4790   24.7544 N.ar    1  UNL1       -0.1622
     18 N           7.7208   -5.4893   25.7932 N.ar    1  UNL1       -0.2163
     19 H           6.4191   -2.2541   25.1871 H       1  UNL1        0.1437
     20 H           6.6576   -2.9598   26.7210 H       1  UNL1        0.1437
     21 C           7.7569   -5.6959   27.2783 C.ar    1  UNL1        0.0843
     22 C           8.9340   -6.3757   27.9126 C.ar    1  UNL1        0.0215
     23 C           8.9703   -6.5824   29.3978 C.ar    1  UNL1        0.0312
     24 C           7.8293   -6.1090   30.2489 C.ar    1  UNL1        0.1402
     25 F           7.8655   -6.3156   31.7342 F       1  UNL1       -0.2042
     26 C           6.6522   -5.4292   29.6147 C.ar    1  UNL1        0.0312
     27 C           6.6160   -5.2226   28.1294 C.ar    1  UNL1        0.0215
     28 C           3.5475   -2.2452   19.6312 C.3     1  UNL1        0.1308
     29 N           3.2120   -0.9160   19.0224 N.am    1  UNL1       -0.2703
     30 C           2.7955    0.2271   19.8998 C.2     1  UNL1        0.2536
     31 O           2.7145    0.0411   21.3860 O.2     1  UNL1       -0.2697
     32 C           2.4600    1.5563   19.2909 C.ar    1  UNL1        0.1083
     33 C           3.5582    2.4782   18.8506 C.ar    1  UNL1        0.1467
     34 F           4.9921    2.0709   19.0191 F       1  UNL1       -0.2039
     35 C           3.2227    3.8074   18.2417 C.ar    1  UNL1        0.0299
     36 C           1.7890    4.2147   18.0732 C.ar    1  UNL1        0.0046
     37 C           0.6907    3.2928   18.5135 C.ar    1  UNL1        0.0299
     38 C           1.0261    1.9636   19.1224 C.ar    1  UNL1        0.1467
     39 F          -0.0721    1.0417   19.5627 F       1  UNL1       -0.2039
     40 C           3.2930   -0.7300   17.5362 C.3     1  UNL1        0.1319
     41 C           4.6255   -0.5312   16.8768 C.3     1  UNL1        0.2146
     42 F           5.8585   -0.3602   17.7139 F       1  UNL1       -0.2324
@<TRIPOS>BOND
     1    13    14    1
     2    14    15   ar
     3    15     9    1
     4     9    10    2
     5     9    11   am
     6    11     8    1
     7     8     1    1
     8     1     2    1
     9     1    28    1
    10    28    29    1
    11    29    40    1
    12    40    41    1
    13    41    42    1
    14    29    30   am
    15    30    31    2
    16    30    32    1
    17    32    33   ar
    18    33    34    1
    19    33    35   ar
    20    35    36   ar
    21    36    37   ar
    22    37    38   ar
    23    38    39    1
    24     1     4    1
    25     4     5    1
    26     4     6    1
    27     4     7    1
    28    15    16   ar
    29    16    17   ar
    30    17    18   ar
    31    18    21    1
    32    21    22   ar
    33    22    23   ar
    34    23    24   ar
    35    24    25    1
    36    24    26   ar
    37    26    27   ar
    38    18    14   ar
    39    27    21   ar
    40    38    32   ar
    41    13    19    1
    42    13    20    1
    43    11    12    1
    44     2     3    1
@<TRIPOS>MOLECULE
*****
 42 44 0 0 0
SMALL
GASTEIGER

@<TRIPOS>ATOM
      1 C           7.2887   -1.9714   20.0854 C.3     1  UNL1        0.2120
      2 O           8.0836   -1.3817   21.2125 O.3     1  UNL1       -0.3763
      3 H           9.0243   -1.3756   20.9761 H       1  UNL1        0.2107
      4 C           6.4938   -2.5611   18.9583 C.3     1  UNL1        0.4226
      5 F           5.6989   -3.1507   17.8311 F       1  UNL1       -0.1675
      6 F           5.6435   -3.3033   19.9463 F       1  UNL1       -0.1675
      7 F           7.3441   -1.8188   17.9704 F       1  UNL1       -0.1675
      8 C           7.8184   -3.3332   20.4243 C.3     1  UNL1        0.1269
      9 C           7.3716   -4.2649   22.8081 C.2     1  UNL1        0.2502
     10 O           5.9669   -4.6091   22.4103 O.2     1  UNL1       -0.2700
     11 N           8.2973   -3.6269   21.8152 N.am    1  UNL1       -0.2982
     12 H           9.2193   -3.4010   22.0763 H       1  UNL1        0.1498
     13 N           5.8096   -3.5143   25.5732 N.pl3   1  UNL1       -0.3424
     14 C           7.1326   -4.2136   25.4700 C.ar    1  UNL1        0.1327
     15 C           7.8505   -4.5586   24.1989 C.ar    1  UNL1        0.1053
     16 C           9.1316   -5.2489   24.5628 C.ar    1  UNL1        0.1278
     17 N           9.2053   -5.3305   26.0589 N.ar    1  UNL1       -0.1622
     18 N           7.9698   -4.6906   26.6195 N.ar    1  UNL1       -0.2163
     19 H           5.3335   -3.2384   24.7568 H       1  UNL1        0.1437
     20 H           5.4173   -3.3312   26.4575 H       1  UNL1        0.1437
     21 C           7.6311   -4.5521   28.0741 C.ar    1  UNL1        0.0843
     22 C           7.2872   -5.7675   28.8831 C.ar    1  UNL1        0.0215
     23 C           6.9484   -5.6291   30.3377 C.ar    1  UNL1        0.0312
     24 C           6.9537   -4.2751   30.9835 C.ar    1  UNL1        0.1402
     25 F           6.6150   -4.1367   32.4382 F       1  UNL1       -0.2042
     26 C           7.2977   -3.0598   30.1745 C.ar    1  UNL1        0.0312
     27 C           7.6364   -3.1982   28.7198 C.ar    1  UNL1        0.0215
     28 C           6.7590   -0.6096   19.7465 C.3     1  UNL1        0.1308
     29 N           5.3726   -0.2186   20.1650 N.am    1  UNL1       -0.2703
     30 C           4.3263    0.0600   19.1269 C.2     1  UNL1        0.2536
     31 O           4.6664   -0.0524   17.6703 O.2     1  UNL1       -0.2697
     32 C           2.9400    0.4510   19.5454 C.ar    1  UNL1        0.1083
     33 C           2.5481    1.8984   19.5832 C.ar    1  UNL1        0.1467
     34 F           3.5427    2.9549   19.2025 F       1  UNL1       -0.2039
     35 C           1.1618    2.2894   20.0017 C.ar    1  UNL1        0.0299
     36 C           0.1673    1.2330   20.3824 C.ar    1  UNL1        0.0046
     37 C           0.5591   -0.2144   20.3446 C.ar    1  UNL1        0.0299
     38 C           1.9455   -0.6054   19.9261 C.ar    1  UNL1        0.1467
     39 F           2.3373   -2.0528   19.8883 F       1  UNL1       -0.2039
     40 C           5.0325   -0.1062   21.6216 C.3     1  UNL1        0.1319
     41 C           4.6825   -1.3352   22.4070 C.3     1  UNL1        0.2146
     42 F           3.2465   -1.6537   22.7011 F       1  UNL1       -0.2324
@<TRIPOS>BOND
     1    13    14    1
     2    14    15   ar
     3    15     9    1
     4     9    10    2
     5     9    11   am
     6    11     8    1
     7     8     1    1
     8     1     2    1
     9     1    28    1
    10    28    29    1
    11    29    40    1
    12    40    41    1
    13    41    42    1
    14    29    30   am
    15    30    31    2
    16    30    32    1
    17    32    33   ar
    18    33    34    1
    19    33    35   ar
    20    35    36   ar
    21    36    37   ar
    22    37    38   ar
    23    38    39    1
    24     1     4    1
    25     4     5    1
    26     4     6    1
    27     4     7    1
    28    15    16   ar
    29    16    17   ar
    30    17    18   ar
    31    18    21    1
    32    21    22   ar
    33    22    23   ar
    34    23    24   ar
    35    24    25    1
    36    24    26   ar
    37    26    27   ar
    38    18    14   ar
    39    27    21   ar
    40    38    32   ar
    41    13    19    1
    42    13    20    1
    43    11    12    1
    44     2     3    1
@<TRIPOS>MOLECULE
*****
 42 44 0 0 0
SMALL
GASTEIGER

@<TRIPOS>ATOM
      1 C           6.6158   -3.8784   23.8124 C.3     1  UNL1        0.2120
      2 O           5.1574   -3.5338   23.7462 O.3     1  UNL1       -0.3763
      3 H           5.0444   -2.5794   23.8773 H       1  UNL1        0.2107
      4 C           8.0741   -4.2230   23.8787 C.3     1  UNL1        0.4226
      5 F           9.5325   -4.5676   23.9449 F       1  UNL1       -0.1675
      6 F           7.7578   -5.6363   23.4882 F       1  UNL1       -0.1675
      7 F           8.3903   -2.8097   24.2691 F       1  UNL1       -0.1675
      8 C           6.6013   -3.6546   25.2955 C.3     1  UNL1        0.1269
      9 C           5.7019   -2.2335   27.2758 C.2     1  UNL1        0.2502
     10 O           6.9985   -2.4282   28.0044 O.2     1  UNL1       -0.2700
     11 N           5.5033   -2.8466   25.9214 N.am    1  UNL1       -0.2982
     12 H           4.6522   -2.7189   25.4432 H       1  UNL1        0.1498
     13 N           3.1918   -0.8647   25.7025 N.pl3   1  UNL1       -0.3424
     14 C           3.4501   -0.7964   27.1785 C.ar    1  UNL1        0.1327
     15 C           4.6039   -1.4256   27.9017 C.ar    1  UNL1        0.1053
     16 C           4.4669   -1.1050   29.3606 C.ar    1  UNL1        0.1278
     17 N           3.2283   -0.2777   29.5391 N.ar    1  UNL1       -0.1622
     18 N           2.6000   -0.0870   28.1904 N.ar    1  UNL1       -0.2163
     19 H           3.8110   -1.3574   25.1167 H       1  UNL1        0.1437
     20 H           2.4031   -0.4170   25.3195 H       1  UNL1        0.1437
     21 C           1.3424    0.6786   27.9040 C.ar    1  UNL1        0.0843
     22 C           0.0306    0.1972   28.4494 C.ar    1  UNL1        0.0215
     23 C          -1.2271    0.9628   28.1630 C.ar    1  UNL1        0.0312
     24 C          -1.1730    2.2100   27.3312 C.ar    1  UNL1        0.1402
     25 F          -2.4307    2.9757   27.0448 F       1  UNL1       -0.2042
     26 C           0.1388    2.6914   26.7859 C.ar    1  UNL1        0.0312
     27 C           1.3965    1.9257   27.0723 C.ar    1  UNL1        0.0215
     28 C           6.6302   -4.1022   22.3293 C.3     1  UNL1        0.1308
     29 N           6.0772   -3.0561   21.4075 N.am    1  UNL1       -0.2703
     30 C           4.8191   -3.3254   20.6362 C.2     1  UNL1        0.2536
     31 O           4.1142   -4.6408   20.7867 O.2     1  UNL1       -0.2697
     32 C           4.2661   -2.2793   19.7143 C.ar    1  UNL1        0.1083
     33 C           4.7482   -2.1987   18.2962 C.ar    1  UNL1        0.1467
     34 F           5.7832   -3.1643   17.7999 F       1  UNL1       -0.2039
     35 C           4.1951   -1.1526   17.3744 C.ar    1  UNL1        0.0299
     36 C           3.1601   -0.1870   17.8707 C.ar    1  UNL1        0.0046
     37 C           2.6781   -0.2675   19.2889 C.ar    1  UNL1        0.0299
     38 C           3.2311   -1.3137   20.2107 C.ar    1  UNL1        0.1467
     39 F           2.7491   -1.3942   21.6288 F       1  UNL1       -0.2039
     40 C           6.7822   -1.7407   21.2569 C.3     1  UNL1        0.1319
     41 C           6.3904   -0.5769   22.1183 C.3     1  UNL1        0.2146
     42 F           5.6062    0.5596   21.5322 F       1  UNL1       -0.2324
@<TRIPOS>BOND
     1    13    14    1
     2    14    15   ar
     3    15     9    1
     4     9    10    2
     5     9    11   am
     6    11     8    1
     7     8     1    1
     8     1     2    1
     9     1    28    1
    10    28    29    1
    11    29    40    1
    12    40    41    1
    13    41    42    1
    14    29    30   am
    15    30    31    2
    16    30    32    1
    17    32    33   ar
    18    33    34    1
    19    33    35   ar
    20    35    36   ar
    21    36    37   ar
    22    37    38   ar
    23    38    39    1
    24     1     4    1
    25     4     5    1
    26     4     6    1
    27     4     7    1
    28    15    16   ar
    29    16    17   ar
    30    17    18   ar
    31    18    21    1
    32    21    22   ar
    33    22    23   ar
    34    23    24   ar
    35    24    25    1
    36    24    26   ar
    37    26    27   ar
    38    18    14   ar
    39    27    21   ar
    40    38    32   ar
    41    13    19    1
    42    13    20    1
    43    11    12    1
    44     2     3    1
@<TRIPOS>MOLECULE
*****
 42 44 0 0 0
SMALL
GASTEIGER

@<TRIPOS>ATOM
      1 C           6.9487   -3.6604   21.2568 C.3     1  UNL1        0.2120
      2 O           5.6728   -3.1256   21.8364 O.3     1  UNL1       -0.3763
      3 H           5.8698   -2.3641   22.4041 H       1  UNL1        0.2107
      4 C           8.2246   -4.1952   20.6771 C.3     1  UNL1        0.4226
      5 F           9.5005   -4.7301   20.0975 F       1  UNL1       -0.1675
      6 F           8.2743   -3.0404   19.7211 F       1  UNL1       -0.1675
      7 F           8.1749   -5.3500   21.6331 F       1  UNL1       -0.1675
      8 C           7.3237   -4.2188   22.5975 C.3     1  UNL1        0.1269
      9 C           7.2367   -3.9948   25.1844 C.2     1  UNL1        0.2502
     10 O           7.3728   -5.4826   25.3178 O.2     1  UNL1       -0.2700
     11 N           7.2122   -3.3628   23.8243 N.am    1  UNL1       -0.2982
     12 H           7.1229   -2.3863   23.7368 H       1  UNL1        0.1498
     13 N           5.7591   -4.8233   27.9736 N.pl3   1  UNL1       -0.3424
     14 C           6.4460   -3.5197   27.6933 C.ar    1  UNL1        0.1327
     15 C           7.1252   -3.1388   26.4112 C.ar    1  UNL1        0.1053
     16 C           7.6733   -1.7518   26.5713 C.ar    1  UNL1        0.1278
     17 N           7.3329   -1.2753   27.9523 N.ar    1  UNL1       -0.1622
     18 N           6.5743   -2.3680   28.6457 N.ar    1  UNL1       -0.2163
     19 H           5.7272   -5.5219   27.2806 H       1  UNL1        0.1437
     20 H           5.3402   -4.9804   28.8505 H       1  UNL1        0.1437
     21 C           6.0383   -2.3178   30.0457 C.ar    1  UNL1        0.0843
     22 C           6.5499   -3.2767   31.0795 C.ar    1  UNL1        0.0215
     23 C           6.0138   -3.2266   32.4796 C.ar    1  UNL1        0.0312
     24 C           4.9661   -2.2174   32.8458 C.ar    1  UNL1        0.1402
     25 F           4.4301   -2.1672   34.2459 F       1  UNL1       -0.2042
     26 C           4.4546   -1.2585   31.8120 C.ar    1  UNL1        0.0312
     27 C           4.9906   -1.3087   30.4119 C.ar    1  UNL1        0.0215
     28 C           6.5737   -3.1020   19.9161 C.3     1  UNL1        0.1308
     29 N           5.1964   -2.5519   19.6913 N.am    1  UNL1       -0.2703
     30 C           4.8890   -1.1288   20.0524 C.2     1  UNL1        0.2536
     31 O           5.9589   -0.2558   20.6383 O.2     1  UNL1       -0.2697
     32 C           3.5117   -0.5787   19.8277 C.ar    1  UNL1        0.1083
     33 C           2.4687   -0.7077   20.8979 C.ar    1  UNL1        0.1467
     34 F           2.8030   -1.3868   22.1930 F       1  UNL1       -0.2039
     35 C           1.0914   -0.1576   20.6732 C.ar    1  UNL1        0.0299
     36 C           0.7571    0.5214   19.3782 C.ar    1  UNL1        0.0046
     37 C           1.8002    0.6504   18.3078 C.ar    1  UNL1        0.0299
     38 C           3.1774    0.1003   18.5326 C.ar    1  UNL1        0.1467
     39 F           4.2204    0.2293   17.4623 F       1  UNL1       -0.2039
     40 C           4.1265   -3.4249   19.1055 C.3     1  UNL1        0.1319
     41 C           4.3578   -4.8998   18.9609 C.3     1  UNL1        0.2146
     42 F           3.4832   -5.8718   19.6961 F       1  UNL1       -0.2324
@<TRIPOS>BOND
     1    13    14    1
     2    14    15   ar
     3    15     9    1
     4     9    10    2
     5     9    11   am
     6    11     8    1
     7     8     1    1
     8     1     2    1
     9     1    28    1
    10    28    29    1
    11    29    40    1
    12    40    41    1
    13    41    42    1
    14    29    30   am
    15    30    31    2
    16    30    32    1
    17    32    33   ar
    18    33    34    1
    19    33    35   ar
    20    35    36   ar
    21    36    37   ar
    22    37    38   ar
    23    38    39    1
    24     1     4    1
    25     4     5    1
    26     4     6    1
    27     4     7    1
    28    15    16   ar
    29    16    17   ar
    30    17    18   ar
    31    18    21    1
    32    21    22   ar
    33    22    23   ar
    34    23    24   ar
    35    24    25    1
    36    24    26   ar
    37    26    27   ar
    38    18    14   ar
    39    27    21   ar
    40    38    32   ar
    41    13    19    1
    42    13    20    1
    43    11    12    1
    44     2     3    1
