@<TRIPOS>MOLECULE
*****
 33 35 0 0 0
SMALL
GASTEIGER

@<TRIPOS>ATOM
      1 C          -4.4253  -20.3698   20.1119 C.3     1  UNL1        0.0941
      2 N          -5.8309  -20.8180   20.3826 N.am    1  UNL1       -0.3039
      3 C          -6.9299  -19.8049   20.5091 C.2     1  UNL1        0.2250
      4 O          -6.6233  -18.3438   20.3650 O.2     1  UNL1       -0.2750
      5 H          -6.0322  -21.7771   20.4772 H       1  UNL1        0.1494
      6 C          -8.3357  -20.2531   20.7798 C.3     1  UNL1        0.1154
      7 C          -9.4918  -19.4438   20.2717 C.3     1  UNL1        0.1377
      8 C          -8.8203  -19.6106   18.9408 C.3     1  UNL1        0.0335
      9 C          -9.9216  -19.4462   21.7088 C.3     1  UNL1        0.0613
     10 C         -11.2031  -18.6732   21.8107 C.3     1  UNL1        0.1290
     11 C         -12.4738  -17.8780   21.7575 C.3     1  UNL1        0.0305
     12 C         -13.2557  -17.6289   23.0131 C.3     1  UNL1        0.0025
     13 C         -12.7670  -18.1751   24.3218 C.3     1  UNL1        0.0002
     14 C         -11.4963  -18.9703   24.3750 C.3     1  UNL1        0.0025
     15 C         -10.7144  -19.2194   23.1195 C.3     1  UNL1        0.0305
     16 O         -11.5653  -18.1930   20.4366 O.3     1  UNL1       -0.2256
     17 O         -10.5076  -18.6693   19.4854 O.3     1  UNL1       -0.2251
     18 C          -3.5078  -20.0477   21.2540 C.3     1  UNL1        0.0476
     19 C          -4.1833  -16.7402   23.3408 C.ar    1  UNL1        0.0529
     20 C          -3.1669  -15.8143   22.7413 C.ar    1  UNL1        0.0147
     21 C          -2.2641  -16.2995   21.6460 C.ar    1  UNL1        0.0010
     22 C          -2.3777  -17.7106   21.1503 C.ar    1  UNL1       -0.0041
     23 C          -3.3942  -18.6366   21.7498 C.ar    1  UNL1       -0.0192
     24 C          -4.2969  -18.1515   22.8450 C.ar    1  UNL1        0.0106
     25 C          -6.3438  -15.5113   24.0970 C.2     1  UNL1        0.4052
     26 O          -6.6987  -15.2526   22.6627 O.2     1  UNL1       -0.2261
     27 N          -5.0861  -16.2551   24.4360 N.am    1  UNL1       -0.2499
     28 H          -4.8532  -16.4249   25.3774 H       1  UNL1        0.1582
     29 O          -7.2467  -15.0261   25.1922 O.3     1  UNL1       -0.4417
     30 C          -8.8354  -16.3996   24.8930 C.3     1  UNL1        0.0437
     31 C          -7.9729  -16.0128   26.0577 C.3     1  UNL1        0.1378
     32 C          -7.1104  -15.6261   27.2224 C.3     1  UNL1        0.0437
     33 C          -8.6992  -16.9996   26.9231 C.3     1  UNL1        0.0437
@<TRIPOS>BOND
     1    30    31    1
     2    31    32    1
     3    31    33    1
     4    31    29    1
     5    29    25    1
     6    25    26    2
     7    25    27   am
     8    27    19    1
     9    19    20   ar
    10    20    21   ar
    11    21    22   ar
    12    22    23   ar
    13    23    18    1
    14    18     1    1
    15     1     2    1
    16     2     3   am
    17     3     4    2
    18     3     6    1
    19     6     7    1
    20     7     8    1
    21     7     9    1
    22     9    10    1
    23    10    11    1
    24    11    12    1
    25    12    13    1
    26    13    14    1
    27    14    15    1
    28    10    16    1
    29    16    17    1
    30    23    24   ar
    31    24    19   ar
    32    17     7    1
    33    15    10    1
    34    27    28    1
    35     2     5    1
@<TRIPOS>MOLECULE
*****
 33 35 0 0 0
SMALL
GASTEIGER

@<TRIPOS>ATOM
      1 C          -9.0616  -15.4241   24.5042 C.3     1  UNL1        0.0941
      2 N          -9.9862  -16.1187   23.5488 N.am    1  UNL1       -0.3039
      3 C         -10.4771  -17.5032   23.8531 C.2     1  UNL1        0.2250
      4 O         -10.0435  -18.1928   25.1125 O.2     1  UNL1       -0.2750
      5 H         -10.2708  -15.6660   22.7222 H       1  UNL1        0.1494
      6 C         -11.4017  -18.1978   22.8977 C.3     1  UNL1        0.1154
      7 C         -11.0337  -18.3137   21.4483 C.3     1  UNL1        0.1377
      8 C         -12.3889  -17.7133   21.2183 C.3     1  UNL1        0.0335
      9 C          -9.7554  -18.8899   21.9812 C.3     1  UNL1        0.0613
     10 C          -8.8805  -19.2364   20.8130 C.3     1  UNL1        0.1290
     11 C          -8.1213  -19.5295   19.5530 C.3     1  UNL1        0.0305
     12 C          -6.7497  -20.1322   19.6269 C.3     1  UNL1        0.0025
     13 C          -6.1374  -20.4419   20.9607 C.3     1  UNL1        0.0002
     14 C          -6.8966  -20.1489   22.2207 C.3     1  UNL1        0.0025
     15 C          -8.2682  -19.5461   22.1469 C.3     1  UNL1        0.0305
     16 O          -9.6181  -18.8744   19.5581 O.3     1  UNL1       -0.2256
     17 O         -10.9489  -18.3041   19.9506 O.3     1  UNL1       -0.2251
     18 C          -7.7205  -14.9436   24.0345 C.3     1  UNL1        0.0476
     19 C          -4.4911  -17.2499   23.9878 C.ar    1  UNL1        0.0529
     20 C          -3.9781  -17.0475   25.3826 C.ar    1  UNL1        0.0147
     21 C          -4.7125  -16.1438   26.3282 C.ar    1  UNL1        0.0010
     22 C          -5.9600  -15.4425   25.8788 C.ar    1  UNL1       -0.0041
     23 C          -6.4730  -15.6450   24.4838 C.ar    1  UNL1       -0.0192
     24 C          -5.7387  -16.5486   23.5384 C.ar    1  UNL1        0.0106
     25 C          -2.7827  -17.5771   22.0579 C.2     1  UNL1        0.4052
     26 O          -2.5431  -16.0969   22.0191 O.2     1  UNL1       -0.2261
     27 N          -3.7567  -18.1536   23.0422 N.am    1  UNL1       -0.2499
     28 H          -3.9140  -19.1252   23.0677 H       1  UNL1        0.1582
     29 O          -2.0484  -18.4808   21.1124 O.3     1  UNL1       -0.4417
     30 C          -0.4751  -17.7626   19.8840 C.3     1  UNL1        0.0437
     31 C          -1.9187  -18.1065   19.6657 C.3     1  UNL1        0.1378
     32 C          -3.3623  -18.4504   19.4472 C.3     1  UNL1        0.0437
     33 C          -1.7890  -17.7321   18.2189 C.3     1  UNL1        0.0437
@<TRIPOS>BOND
     1    30    31    1
     2    31    32    1
     3    31    33    1
     4    31    29    1
     5    29    25    1
     6    25    26    2
     7    25    27   am
     8    27    19    1
     9    19    20   ar
    10    20    21   ar
    11    21    22   ar
    12    22    23   ar
    13    23    18    1
    14    18     1    1
    15     1     2    1
    16     2     3   am
    17     3     4    2
    18     3     6    1
    19     6     7    1
    20     7     8    1
    21     7     9    1
    22     9    10    1
    23    10    11    1
    24    11    12    1
    25    12    13    1
    26    13    14    1
    27    14    15    1
    28    10    16    1
    29    16    17    1
    30    23    24   ar
    31    24    19   ar
    32    17     7    1
    33    15    10    1
    34    27    28    1
    35     2     5    1
@<TRIPOS>MOLECULE
*****
 33 35 0 0 0
SMALL
GASTEIGER

@<TRIPOS>ATOM
      1 C         -11.0906  -18.3440   19.6664 C.3     1  UNL1        0.0941
      2 N         -10.6223  -17.0975   20.3570 N.am    1  UNL1       -0.3039
      3 C         -10.7342  -16.9792   21.8482 C.2     1  UNL1        0.2250
      4 O         -11.3143  -18.1073   22.6486 O.2     1  UNL1       -0.2750
      5 H         -10.2416  -16.3571   19.8316 H       1  UNL1        0.1494
      6 C         -10.2659  -15.7326   22.5388 C.3     1  UNL1        0.1154
      7 C          -8.8031  -15.4034   22.5815 C.3     1  UNL1        0.1377
      8 C          -8.9848  -15.1209   21.1196 C.3     1  UNL1        0.0335
      9 C          -8.9272  -15.7547   24.0345 C.3     1  UNL1        0.0613
     10 C          -7.5791  -15.5835   24.6696 C.3     1  UNL1        0.1290
     11 C          -6.1790  -15.3689   25.1630 C.3     1  UNL1        0.0305
     12 C          -5.8465  -15.6121   26.6053 C.3     1  UNL1        0.0025
     13 C          -6.9142  -16.0700   27.5542 C.3     1  UNL1        0.0002
     14 C          -8.3143  -16.2847   27.0607 C.3     1  UNL1        0.0025
     15 C          -8.6468  -16.0415   25.6184 C.3     1  UNL1        0.0305
     16 O          -6.6218  -15.1264   23.6091 O.3     1  UNL1       -0.2256
     17 O          -7.3783  -15.0151   22.3185 O.3     1  UNL1       -0.2251
     18 C         -10.2051  -19.5539   19.6207 C.3     1  UNL1        0.0476
     19 C          -6.3582  -19.1436   20.5056 C.ar    1  UNL1        0.0529
     20 C          -6.3449  -19.6053   21.9326 C.ar    1  UNL1        0.0147
     21 C          -7.6182  -20.0499   22.5891 C.ar    1  UNL1        0.0010
     22 C          -8.9050  -20.0328   21.8185 C.ar    1  UNL1       -0.0041
     23 C          -8.9184  -19.5710   20.3913 C.ar    1  UNL1       -0.0192
     24 C          -7.6451  -19.1264   19.7349 C.ar    1  UNL1        0.0106
     25 C          -3.9796  -19.6848   19.6118 C.2     1  UNL1        0.4052
     26 O          -4.1476  -21.1152   20.0309 O.2     1  UNL1       -0.2261
     27 N          -5.0849  -18.6990   19.8492 N.am    1  UNL1       -0.2499
     28 H          -4.9746  -17.7601   19.5741 H       1  UNL1        0.1582
     29 O          -2.7062  -19.2402   18.9553 O.3     1  UNL1       -0.4417
     30 C          -1.7072  -18.9847   20.8091 C.3     1  UNL1        0.0437
     31 C          -1.8838  -18.1498   19.5755 C.3     1  UNL1        0.1378
     32 C          -2.0603  -17.3149   18.3420 C.3     1  UNL1        0.0437
     33 C          -1.0613  -17.0595   20.1959 C.3     1  UNL1        0.0437
@<TRIPOS>BOND
     1    30    31    1
     2    31    32    1
     3    31    33    1
     4    31    29    1
     5    29    25    1
     6    25    26    2
     7    25    27   am
     8    27    19    1
     9    19    20   ar
    10    20    21   ar
    11    21    22   ar
    12    22    23   ar
    13    23    18    1
    14    18     1    1
    15     1     2    1
    16     2     3   am
    17     3     4    2
    18     3     6    1
    19     6     7    1
    20     7     8    1
    21     7     9    1
    22     9    10    1
    23    10    11    1
    24    11    12    1
    25    12    13    1
    26    13    14    1
    27    14    15    1
    28    10    16    1
    29    16    17    1
    30    23    24   ar
    31    24    19   ar
    32    17     7    1
    33    15    10    1
    34    27    28    1
    35     2     5    1
@<TRIPOS>MOLECULE
*****
 33 35 0 0 0
SMALL
GASTEIGER

@<TRIPOS>ATOM
      1 C          -8.5600  -15.2617   25.1663 C.3     1  UNL1        0.0941
      2 N          -9.4064  -16.4085   24.6987 N.am    1  UNL1       -0.3039
      3 C          -9.5495  -17.6325   25.5540 C.2     1  UNL1        0.2250
      4 O          -8.8462  -17.7098   26.8765 O.2     1  UNL1       -0.2750
      5 H          -9.8680  -16.3577   23.8306 H       1  UNL1        0.1494
      6 C         -10.3959  -18.7793   25.0864 C.3     1  UNL1        0.1154
      7 C         -10.1419  -19.4010   23.7452 C.3     1  UNL1        0.1377
      8 C          -9.5430  -20.5157   24.5506 C.3     1  UNL1        0.0335
      9 C         -10.7939  -18.1563   23.2202 C.3     1  UNL1        0.0613
     10 C         -10.8176  -18.2417   21.7227 C.3     1  UNL1        0.1290
     11 C         -10.7703  -18.4663   20.2405 C.3     1  UNL1        0.0305
     12 C         -11.3327  -17.4353   19.3074 C.3     1  UNL1        0.0025
     13 C         -11.9423  -16.1796   19.8566 C.3     1  UNL1        0.0002
     14 C         -11.9896  -15.9550   21.3389 C.3     1  UNL1        0.0025
     15 C         -11.4272  -16.9860   22.2720 C.3     1  UNL1        0.0305
     16 O         -10.1802  -19.5392   21.3223 O.3     1  UNL1       -0.2256
     17 O          -9.7626  -20.2557   22.5723 O.3     1  UNL1       -0.2251
     18 C          -7.2800  -14.9357   24.4554 C.3     1  UNL1        0.0476
     19 C          -3.9729  -17.0436   23.8469 C.ar    1  UNL1        0.0529
     20 C          -3.5788  -17.3662   25.2577 C.ar    1  UNL1        0.0147
     21 C          -4.4184  -16.8787   26.4011 C.ar    1  UNL1        0.0010
     22 C          -5.6521  -16.0685   26.1338 C.ar    1  UNL1       -0.0041
     23 C          -6.0462  -15.7459   24.7228 C.ar    1  UNL1       -0.0192
     24 C          -5.2067  -16.2334   23.5794 C.ar    1  UNL1        0.0106
     25 C          -3.3416  -18.9117   22.1552 C.2     1  UNL1        0.4052
     26 O          -4.3895  -19.8048   22.7505 O.2     1  UNL1       -0.2261
     27 N          -3.1334  -17.5311   22.7034 N.am    1  UNL1       -0.2499
     28 H          -2.4456  -16.9449   22.3127 H       1  UNL1        0.1582
     29 O          -2.5021  -19.3992   21.0118 O.3     1  UNL1       -0.4417
     30 C          -3.7752  -18.7671   19.4371 C.3     1  UNL1        0.0437
     31 C          -2.3336  -18.5475   19.7886 C.3     1  UNL1        0.1378
     32 C          -0.8920  -18.3278   20.1400 C.3     1  UNL1        0.0437
     33 C          -2.1652  -17.6957   18.5653 C.3     1  UNL1        0.0437
@<TRIPOS>BOND
     1    30    31    1
     2    31    32    1
     3    31    33    1
     4    31    29    1
     5    29    25    1
     6    25    26    2
     7    25    27   am
     8    27    19    1
     9    19    20   ar
    10    20    21   ar
    11    21    22   ar
    12    22    23   ar
    13    23    18    1
    14    18     1    1
    15     1     2    1
    16     2     3   am
    17     3     4    2
    18     3     6    1
    19     6     7    1
    20     7     8    1
    21     7     9    1
    22     9    10    1
    23    10    11    1
    24    11    12    1
    25    12    13    1
    26    13    14    1
    27    14    15    1
    28    10    16    1
    29    16    17    1
    30    23    24   ar
    31    24    19   ar
    32    17     7    1
    33    15    10    1
    34    27    28    1
    35     2     5    1
@<TRIPOS>MOLECULE
*****
 33 35 0 0 0
SMALL
GASTEIGER

@<TRIPOS>ATOM
      1 C          -4.4180  -20.1700   19.3879 C.3     1  UNL1        0.0941
      2 N          -5.6010  -19.4131   19.9148 N.am    1  UNL1       -0.3039
      3 C          -6.9208  -20.1060   20.0820 C.2     1  UNL1        0.2250
      4 O          -7.0576  -21.5557   19.7223 O.2     1  UNL1       -0.2750
      5 H          -5.5112  -18.4615   20.1509 H       1  UNL1        0.1494
      6 C          -8.1039  -19.3491   20.6090 C.3     1  UNL1        0.1154
      7 C          -8.5106  -19.4983   22.0450 C.3     1  UNL1        0.1377
      8 C          -7.1399  -20.0853   22.2085 C.3     1  UNL1        0.0335
      9 C          -9.7962  -18.8802   21.5813 C.3     1  UNL1        0.0613
     10 C         -10.7111  -18.7700   22.7649 C.3     1  UNL1        0.1290
     11 C         -11.5106  -18.7247   24.0332 C.3     1  UNL1        0.0305
     12 C         -12.9015  -18.1631   24.0233 C.3     1  UNL1        0.0025
     13 C         -13.4928  -17.6468   22.7451 C.3     1  UNL1        0.0002
     14 C         -12.6932  -17.6921   21.4768 C.3     1  UNL1        0.0025
     15 C         -11.3024  -18.2537   21.4867 C.3     1  UNL1        0.0305
     16 O          -9.9908  -19.3201   23.9602 O.3     1  UNL1       -0.2256
     17 O          -8.6308  -19.7703   23.5153 O.3     1  UNL1       -0.2251
     18 C          -3.0479  -19.8939   19.9324 C.3     1  UNL1        0.0476
     19 C          -3.3559  -17.1647   22.7971 C.ar    1  UNL1        0.0529
     20 C          -2.3010  -16.1869   22.3717 C.ar    1  UNL1        0.0147
     21 C          -1.4950  -16.4447   21.1332 C.ar    1  UNL1        0.0010
     22 C          -1.7439  -17.6804   20.3200 C.ar    1  UNL1       -0.0041
     23 C          -2.7989  -18.6582   20.7455 C.ar    1  UNL1       -0.0192
     24 C          -3.6049  -18.4004   21.9839 C.ar    1  UNL1        0.0106
     25 C          -5.0301  -15.6869   24.1250 C.2     1  UNL1        0.4052
     26 O          -5.0923  -14.7248   22.9759 O.2     1  UNL1       -0.2261
     27 N          -4.1619  -16.9068   24.0356 N.am    1  UNL1       -0.2499
     28 H          -4.1211  -17.5383   24.7898 H       1  UNL1        0.1582
     29 O          -5.8361  -15.4291   25.3635 O.3     1  UNL1       -0.4417
     30 C          -7.3556  -15.3945   26.8433 C.3     1  UNL1        0.0437
     31 C          -7.2965  -15.7700   25.3923 C.3     1  UNL1        0.1378
     32 C          -7.2376  -16.1455   23.9413 C.3     1  UNL1        0.0437
     33 C          -8.7571  -16.1109   25.4212 C.3     1  UNL1        0.0437
@<TRIPOS>BOND
     1    30    31    1
     2    31    32    1
     3    31    33    1
     4    31    29    1
     5    29    25    1
     6    25    26    2
     7    25    27   am
     8    27    19    1
     9    19    20   ar
    10    20    21   ar
    11    21    22   ar
    12    22    23   ar
    13    23    18    1
    14    18     1    1
    15     1     2    1
    16     2     3   am
    17     3     4    2
    18     3     6    1
    19     6     7    1
    20     7     8    1
    21     7     9    1
    22     9    10    1
    23    10    11    1
    24    11    12    1
    25    12    13    1
    26    13    14    1
    27    14    15    1
    28    10    16    1
    29    16    17    1
    30    23    24   ar
    31    24    19   ar
    32    17     7    1
    33    15    10    1
    34    27    28    1
    35     2     5    1
@<TRIPOS>MOLECULE
*****
 33 35 0 0 0
SMALL
GASTEIGER

@<TRIPOS>ATOM
      1 C          -9.3309  -15.4445   23.9595 C.3     1  UNL1        0.0941
      2 N          -9.5892  -16.9157   24.0963 N.am    1  UNL1       -0.3039
      3 C         -10.7304  -17.5488   23.3567 C.2     1  UNL1        0.2250
      4 O         -11.6133  -16.7106   22.4805 O.2     1  UNL1       -0.2750
      5 H          -9.0097  -17.4659   24.6715 H       1  UNL1        0.1494
      6 C         -10.9888  -19.0201   23.4936 C.3     1  UNL1        0.1154
      7 C          -9.8486  -19.9613   23.7466 C.3     1  UNL1        0.1377
      8 C         -10.6215  -20.3157   24.9823 C.3     1  UNL1        0.0335
      9 C          -9.3141  -19.4102   22.4580 C.3     1  UNL1        0.0613
     10 C          -8.0050  -20.0849   22.1728 C.3     1  UNL1        0.1290
     11 C          -6.7175  -20.8393   22.0212 C.3     1  UNL1        0.0305
     12 C          -5.8374  -20.5897   20.8325 C.3     1  UNL1        0.0025
     13 C          -6.2449  -19.5856   19.7953 C.3     1  UNL1        0.0002
     14 C          -7.5325  -18.8311   19.9469 C.3     1  UNL1        0.0025
     15 C          -8.4125  -19.0808   21.1357 C.3     1  UNL1        0.0305
     16 O          -7.7305  -21.0530   23.2852 O.3     1  UNL1       -0.2256
     17 O          -8.8700  -20.9767   24.2579 O.3     1  UNL1       -0.2251
     18 C          -7.9643  -14.9549   23.5815 C.3     1  UNL1        0.0476
     19 C          -4.5785  -16.9535   24.1219 C.ar    1  UNL1        0.0529
     20 C          -4.3220  -16.6886   25.5758 C.ar    1  UNL1        0.0147
     21 C          -5.2795  -15.8458   26.3650 C.ar    1  UNL1        0.0010
     22 C          -6.4936  -15.2679   25.7002 C.ar    1  UNL1       -0.0041
     23 C          -6.7502  -15.5328   24.2462 C.ar    1  UNL1       -0.0192
     24 C          -5.7927  -16.3756   23.4571 C.ar    1  UNL1        0.0106
     25 C          -2.7053  -17.1546   22.3328 C.2     1  UNL1        0.4052
     26 O          -2.7472  -15.6701   22.1222 O.2     1  UNL1       -0.2261
     27 N          -3.6210  -17.7963   23.3327 N.am    1  UNL1       -0.2499
     28 H          -3.5935  -18.7707   23.4710 H       1  UNL1        0.1582
     29 O          -1.7478  -17.9974   21.5437 O.3     1  UNL1       -0.4417
     30 C          -2.9442  -18.7354   19.9550 C.3     1  UNL1        0.0437
     31 C          -1.7097  -17.8884   20.0481 C.3     1  UNL1        0.1378
     32 C          -0.4752  -17.0415   20.1412 C.3     1  UNL1        0.0437
     33 C          -1.6716  -17.7795   18.5525 C.3     1  UNL1        0.0437
@<TRIPOS>BOND
     1    30    31    1
     2    31    32    1
     3    31    33    1
     4    31    29    1
     5    29    25    1
     6    25    26    2
     7    25    27   am
     8    27    19    1
     9    19    20   ar
    10    20    21   ar
    11    21    22   ar
    12    22    23   ar
    13    23    18    1
    14    18     1    1
    15     1     2    1
    16     2     3   am
    17     3     4    2
    18     3     6    1
    19     6     7    1
    20     7     8    1
    21     7     9    1
    22     9    10    1
    23    10    11    1
    24    11    12    1
    25    12    13    1
    26    13    14    1
    27    14    15    1
    28    10    16    1
    29    16    17    1
    30    23    24   ar
    31    24    19   ar
    32    17     7    1
    33    15    10    1
    34    27    28    1
    35     2     5    1
@<TRIPOS>MOLECULE
*****
 33 35 0 0 0
SMALL
GASTEIGER

@<TRIPOS>ATOM
      1 C           6.9985   -3.0771   22.4283 C.3     1  UNL1        0.0941
      2 N           6.2447   -3.0678   21.1315 N.am    1  UNL1       -0.3039
      3 C           4.8750   -3.6747   21.0559 C.2     1  UNL1        0.2250
      4 O           4.2592   -4.2908   22.2769 O.2     1  UNL1       -0.2750
      5 H           6.6489   -2.6634   20.3301 H       1  UNL1        0.1494
      6 C           4.1212   -3.6653   19.7590 C.3     1  UNL1        0.1154
      7 C           4.2516   -2.4996   18.8241 C.3     1  UNL1        0.1377
      8 C           5.4088   -3.2760   18.2690 C.3     1  UNL1        0.0335
      9 C           3.0671   -1.9670   19.5747 C.3     1  UNL1        0.0613
     10 C           2.7074   -0.6343   18.9877 C.3     1  UNL1        0.1290
     11 C           2.4676    0.6778   18.3014 C.3     1  UNL1        0.0305
     12 C           1.3432    1.5638   18.7492 C.3     1  UNL1        0.0025
     13 C           0.4585    1.1378   19.8832 C.3     1  UNL1        0.0002
     14 C           0.6983   -0.1742   20.5694 C.3     1  UNL1        0.0025
     15 C           1.8227   -1.0603   20.1217 C.3     1  UNL1        0.0305
     16 O           3.6695   -0.3433   17.8743 O.3     1  UNL1       -0.2256
     17 O           4.6239   -1.4961   17.7732 O.3     1  UNL1       -0.2251
     18 C           8.1356   -4.0347   22.6280 C.3     1  UNL1        0.0476
     19 C           7.1137   -6.1068   25.8548 C.ar    1  UNL1        0.0529
     20 C           7.7241   -7.4404   25.5404 C.ar    1  UNL1        0.0147
     21 C           8.4718   -7.6388   24.2552 C.ar    1  UNL1        0.0010
     22 C           8.6089   -6.5036   23.2844 C.ar    1  UNL1       -0.0041
     23 C           7.9984   -5.1699   23.5988 C.ar    1  UNL1       -0.0192
     24 C           7.2509   -4.9716   24.8839 C.ar    1  UNL1        0.0106
     25 C           7.1178   -5.7551   28.4289 C.2     1  UNL1        0.4052
     26 O           8.6171   -5.8001   28.4327 O.2     1  UNL1       -0.2261
     27 N           6.3661   -5.9084   27.1400 N.am    1  UNL1       -0.2499
     28 H           5.3820   -5.8788   27.1375 H       1  UNL1        0.1582
     29 O           6.3701   -5.5567   29.7141 O.3     1  UNL1       -0.4417
     30 C           7.0996   -5.7623   31.6954 C.3     1  UNL1        0.0437
     31 C           6.9007   -4.6130   30.7523 C.3     1  UNL1        0.1378
     32 C           6.7018   -3.4636   29.8093 C.3     1  UNL1        0.0437
     33 C           7.4313   -3.6692   31.7906 C.3     1  UNL1        0.0437
@<TRIPOS>BOND
     1    30    31    1
     2    31    32    1
     3    31    33    1
     4    31    29    1
     5    29    25    1
     6    25    26    2
     7    25    27   am
     8    27    19    1
     9    19    20   ar
    10    20    21   ar
    11    21    22   ar
    12    22    23   ar
    13    23    18    1
    14    18     1    1
    15     1     2    1
    16     2     3   am
    17     3     4    2
    18     3     6    1
    19     6     7    1
    20     7     8    1
    21     7     9    1
    22     9    10    1
    23    10    11    1
    24    11    12    1
    25    12    13    1
    26    13    14    1
    27    14    15    1
    28    10    16    1
    29    16    17    1
    30    23    24   ar
    31    24    19   ar
    32    17     7    1
    33    15    10    1
    34    27    28    1
    35     2     5    1
@<TRIPOS>MOLECULE
*****
 33 35 0 0 0
SMALL
GASTEIGER

@<TRIPOS>ATOM
      1 C         -11.6855   -3.1976   18.9798 C.3     1  UNL1        0.0941
      2 N         -13.0763   -3.0742   18.4318 N.am    1  UNL1       -0.3039
      3 C         -14.2579   -3.3217   19.3222 C.2     1  UNL1        0.2250
      4 O         -14.0486   -3.6924   20.7605 O.2     1  UNL1       -0.2750
      5 H         -13.2137   -2.8309   17.4878 H       1  UNL1        0.1494
      6 C         -15.6489   -3.1984   18.7742 C.3     1  UNL1        0.1154
      7 C         -16.7070   -2.4897   19.5666 C.3     1  UNL1        0.1377
      8 C         -17.2947   -3.8620   19.7125 C.3     1  UNL1        0.0335
      9 C         -15.8981   -1.2655   19.2550 C.3     1  UNL1        0.0613
     10 C         -16.5792   -0.0870   19.8854 C.3     1  UNL1        0.1290
     11 C         -17.3686    0.9905   20.5680 C.3     1  UNL1        0.0305
     12 C         -16.9018    2.4147   20.5077 C.3     1  UNL1        0.0025
     13 C         -15.6456    2.7614   19.7649 C.3     1  UNL1        0.0002
     14 C         -14.8562    1.6840   19.0824 C.3     1  UNL1        0.0025
     15 C         -15.3230    0.2598   19.1426 C.3     1  UNL1        0.0305
     16 O         -17.8090   -0.5828   20.5866 O.3     1  UNL1       -0.2256
     17 O         -17.8881   -2.0678   20.3896 O.3     1  UNL1       -0.2251
     18 C         -10.9892   -4.5261   18.9666 C.3     1  UNL1        0.0476
     19 C         -13.1505   -7.7671   18.2085 C.ar    1  UNL1        0.0529
     20 C         -12.8142   -8.0009   16.7656 C.ar    1  UNL1        0.0147
     21 C         -11.8696   -7.0765   16.0562 C.ar    1  UNL1        0.0010
     22 C         -11.2613   -5.9182   16.7899 C.ar    1  UNL1       -0.0041
     23 C         -11.5976   -5.6844   18.2330 C.ar    1  UNL1       -0.0192
     24 C         -12.5422   -6.6088   18.9422 C.ar    1  UNL1        0.0106
     25 C         -15.5166   -8.2748   19.1540 C.2     1  UNL1        0.4052
     26 O         -15.9934   -6.9336   18.6808 O.2     1  UNL1       -0.2261
     27 N         -14.0952   -8.6915   18.9178 N.am    1  UNL1       -0.2499
     28 H         -13.7822   -9.5718   19.2284 H       1  UNL1        0.1582
     29 O         -16.4612   -9.1992   19.8633 O.3     1  UNL1       -0.4417
     30 C         -17.1138  -10.6220   18.4316 C.3     1  UNL1        0.0437
     31 C         -17.7799   -9.5476   19.2391 C.3     1  UNL1        0.1378
     32 C         -18.4461   -8.4732   20.0465 C.3     1  UNL1        0.0437
     33 C         -19.0986   -9.8961   18.6147 C.3     1  UNL1        0.0437
@<TRIPOS>BOND
     1    30    31    1
     2    31    32    1
     3    31    33    1
     4    31    29    1
     5    29    25    1
     6    25    26    2
     7    25    27   am
     8    27    19    1
     9    19    20   ar
    10    20    21   ar
    11    21    22   ar
    12    22    23   ar
    13    23    18    1
    14    18     1    1
    15     1     2    1
    16     2     3   am
    17     3     4    2
    18     3     6    1
    19     6     7    1
    20     7     8    1
    21     7     9    1
    22     9    10    1
    23    10    11    1
    24    11    12    1
    25    12    13    1
    26    13    14    1
    27    14    15    1
    28    10    16    1
    29    16    17    1
    30    23    24   ar
    31    24    19   ar
    32    17     7    1
    33    15    10    1
    34    27    28    1
    35     2     5    1
@<TRIPOS>MOLECULE
*****
 33 35 0 0 0
SMALL
GASTEIGER

@<TRIPOS>ATOM
      1 C           6.1987   -2.7443   22.8461 C.3     1  UNL1        0.0941
      2 N           6.1493   -2.6079   21.3531 N.am    1  UNL1       -0.3039
      3 C           5.2569   -3.5048   20.5473 C.2     1  UNL1        0.2250
      4 O           4.4140   -4.5379   21.2343 O.2     1  UNL1       -0.2750
      5 H           6.7025   -1.9298   20.9022 H       1  UNL1        0.1494
      6 C           5.2075   -3.3685   19.0542 C.3     1  UNL1        0.1154
      7 C           5.1893   -2.0067   18.4257 C.3     1  UNL1        0.1377
      8 C           6.5051   -2.4305   17.8433 C.3     1  UNL1        0.0335
      9 C           3.8774   -1.8675   19.1395 C.3     1  UNL1        0.0613
     10 C           3.3234   -0.5082   18.8304 C.3     1  UNL1        0.1290
     11 C           2.8979    0.8744   18.4341 C.3     1  UNL1        0.0305
     12 C           1.6019    1.4344   18.9408 C.3     1  UNL1        0.0025
     13 C           0.7315    0.6118   19.8439 C.3     1  UNL1        0.0002
     14 C           1.1570   -0.7709   20.2402 C.3     1  UNL1        0.0025
     15 C           2.4530   -1.3309   19.7335 C.3     1  UNL1        0.0305
     16 O           4.2930    0.1927   17.9256 O.3     1  UNL1       -0.2256
     17 O           5.4462   -0.7334   17.6755 O.3     1  UNL1       -0.2251
     18 C           4.9545   -2.5423   23.6592 C.3     1  UNL1        0.0476
     19 C           2.4655    0.4124   24.5674 C.ar    1  UNL1        0.0529
     20 C           2.7335    1.3652   23.4404 C.ar    1  UNL1        0.0147
     21 C           3.7418    1.0156   22.3863 C.ar    1  UNL1        0.0010
     22 C           4.4821   -0.2869   22.4592 C.ar    1  UNL1       -0.0041
     23 C           4.2141   -1.2398   23.5863 C.ar    1  UNL1       -0.0192
     24 C           3.2059   -0.8902   24.6403 C.ar    1  UNL1        0.0106
     25 C           1.9112    1.3172   26.9389 C.2     1  UNL1        0.4052
     26 O           3.3735    1.5228   27.2022 O.2     1  UNL1       -0.2261
     27 N           1.4572    0.7620   25.6215 N.am    1  UNL1       -0.2499
     28 H           0.4974    0.6270   25.4487 H       1  UNL1        0.1582
     29 O           0.9028    1.6668   27.9930 O.3     1  UNL1       -0.4417
     30 C           0.8587   -0.1826   29.0311 C.3     1  UNL1        0.0437
     31 C          -0.1676    0.6831   28.3624 C.3     1  UNL1        0.1378
     32 C          -1.1940    1.5488   27.6938 C.3     1  UNL1        0.0437
     33 C          -1.2380   -0.3007   28.7319 C.3     1  UNL1        0.0437
@<TRIPOS>BOND
     1    30    31    1
     2    31    32    1
     3    31    33    1
     4    31    29    1
     5    29    25    1
     6    25    26    2
     7    25    27   am
     8    27    19    1
     9    19    20   ar
    10    20    21   ar
    11    21    22   ar
    12    22    23   ar
    13    23    18    1
    14    18     1    1
    15     1     2    1
    16     2     3   am
    17     3     4    2
    18     3     6    1
    19     6     7    1
    20     7     8    1
    21     7     9    1
    22     9    10    1
    23    10    11    1
    24    11    12    1
    25    12    13    1
    26    13    14    1
    27    14    15    1
    28    10    16    1
    29    16    17    1
    30    23    24   ar
    31    24    19   ar
    32    17     7    1
    33    15    10    1
    34    27    28    1
    35     2     5    1
