@<TRIPOS>MOLECULE
*****
 22 24 0 0 0
SMALL
GASTEIGER

@<TRIPOS>ATOM
      1 N          -4.8035  -16.1486   23.1971 N.pl3   1  UNL1       -0.3279
      2 H          -4.4661  -15.3473   22.7352 H       1  UNL1        0.1472
      3 C          -6.1205  -16.1023   23.9138 C.ar    1  UNL1        0.0642
      4 C          -6.2047  -15.5135   25.2908 C.ar    1  UNL1        0.0159
      5 C          -7.5216  -15.4673   26.0074 C.ar    1  UNL1        0.0028
      6 C          -8.7543  -16.0099   25.3470 C.ar    1  UNL1        0.0188
      7 C          -8.6701  -16.5987   23.9700 C.ar    1  UNL1        0.0799
      8 C          -7.3532  -16.6449   23.2534 C.ar    1  UNL1        0.1113
      9 N          -7.5767  -17.2805   21.9132 N.ar    1  UNL1       -0.2297
     10 C          -9.0319  -17.6271   21.8015 C.ar    1  UNL1        0.1208
     11 C          -9.6950  -18.2803   20.6252 C.3     1  UNL1        0.0718
     12 N          -9.7076  -17.2057   23.0727 N.ar    1  UNL1       -0.3128
     13 C         -11.1649  -17.3636   23.3908 C.3     1  UNL1        0.1316
     14 C          -4.0008  -17.4156   23.1842 C.3     1  UNL1        0.1137
     15 C          -1.7566  -16.2256   21.5881 C.3     1  UNL1        0.0307
     16 C          -2.4760  -17.4401   21.0808 C.ar    1  UNL1       -0.0245
     17 C          -2.0733  -18.0597   19.7754 C.ar    1  UNL1       -0.0045
     18 C          -2.7927  -19.2742   19.2681 C.ar    1  UNL1       -0.0007
     19 C          -3.9148  -19.8692   20.0661 C.ar    1  UNL1       -0.0045
     20 C          -4.3175  -19.2497   21.3715 C.ar    1  UNL1       -0.0245
     21 C          -5.4396  -19.8447   22.1695 C.3     1  UNL1        0.0307
     22 C          -3.5981  -18.0351   21.8789 C.ar    1  UNL1       -0.0105
@<TRIPOS>BOND
     1    15    16    1
     2    16    17   ar
     3    17    18   ar
     4    18    19   ar
     5    19    20   ar
     6    20    21    1
     7    20    22   ar
     8    22    14    1
     9    14     1    1
    10     1     3    1
    11     3     4   ar
    12     4     5   ar
    13     5     6   ar
    14     6     7   ar
    15     7     8   ar
    16     8     9   ar
    17     9    10   ar
    18    10    11    1
    19    10    12   ar
    20    12    13    1
    21    22    16   ar
    22     8     3   ar
    23    12     7   ar
    24     1     2    1
@<TRIPOS>MOLECULE
*****
 22 24 0 0 0
SMALL
GASTEIGER

@<TRIPOS>ATOM
      1 N          -6.8646  -18.7474   21.5985 N.pl3   1  UNL1       -0.3279
      2 H          -6.7787  -18.1051   20.8573 H       1  UNL1        0.1472
      3 C          -8.2188  -19.0740   22.1549 C.ar    1  UNL1        0.0642
      4 C          -8.3611  -20.1297   23.2109 C.ar    1  UNL1        0.0159
      5 C          -9.7153  -20.4562   23.7671 C.ar    1  UNL1        0.0028
      6 C         -10.9272  -19.7271   23.2674 C.ar    1  UNL1        0.0188
      7 C         -10.7849  -18.6714   22.2113 C.ar    1  UNL1        0.0799
      8 C          -9.4307  -18.3449   21.6551 C.ar    1  UNL1        0.1113
      9 N          -9.5994  -17.2639   20.6289 N.ar    1  UNL1       -0.2297
     10 C         -11.0580  -16.9224   20.5509 C.ar    1  UNL1        0.1208
     11 C         -11.6755  -15.8919   19.6527 C.3     1  UNL1        0.0718
     12 N         -11.7906  -17.7923   21.5290 N.ar    1  UNL1       -0.3128
     13 C         -13.2693  -17.7845   21.7804 C.3     1  UNL1        0.1316
     14 C          -5.6412  -19.3993   22.1716 C.3     1  UNL1        0.1137
     15 C          -4.4804  -17.0887   23.6928 C.3     1  UNL1        0.0307
     16 C          -3.6989  -17.7230   22.5807 C.ar    1  UNL1       -0.0245
     17 C          -2.3369  -17.2019   22.2291 C.ar    1  UNL1       -0.0045
     18 C          -1.5554  -17.8361   21.1169 C.ar    1  UNL1       -0.0007
     19 C          -2.1357  -18.9914   20.3563 C.ar    1  UNL1       -0.0045
     20 C          -3.4977  -19.5124   20.7079 C.ar    1  UNL1       -0.0245
     21 C          -4.0780  -20.6677   19.9473 C.3     1  UNL1        0.0307
     22 C          -4.2793  -18.8782   21.8201 C.ar    1  UNL1       -0.0105
@<TRIPOS>BOND
     1    15    16    1
     2    16    17   ar
     3    17    18   ar
     4    18    19   ar
     5    19    20   ar
     6    20    21    1
     7    20    22   ar
     8    22    14    1
     9    14     1    1
    10     1     3    1
    11     3     4   ar
    12     4     5   ar
    13     5     6   ar
    14     6     7   ar
    15     7     8   ar
    16     8     9   ar
    17     9    10   ar
    18    10    11    1
    19    10    12   ar
    20    12    13    1
    21    22    16   ar
    22     8     3   ar
    23    12     7   ar
    24     1     2    1
@<TRIPOS>MOLECULE
*****
 22 24 0 0 0
SMALL
GASTEIGER

@<TRIPOS>ATOM
      1 N          -6.9004  -18.7517   21.6214 N.pl3   1  UNL1       -0.3279
      2 H          -6.8161  -18.1069   20.8822 H       1  UNL1        0.1472
      3 C          -8.2535  -19.0801   22.1796 C.ar    1  UNL1        0.0642
      4 C          -8.3922  -20.1317   23.2402 C.ar    1  UNL1        0.0159
      5 C          -9.7451  -20.4599   23.7984 C.ar    1  UNL1        0.0028
      6 C         -10.9594  -19.7367   23.2960 C.ar    1  UNL1        0.0188
      7 C         -10.8207  -18.6851   22.2354 C.ar    1  UNL1        0.0799
      8 C          -9.4677  -18.3568   21.6772 C.ar    1  UNL1        0.1113
      9 N          -9.6401  -17.2807   20.6464 N.ar    1  UNL1       -0.2297
     10 C         -11.0997  -16.9441   20.5675 C.ar    1  UNL1        0.1208
     11 C         -11.7207  -15.9193   19.6651 C.3     1  UNL1        0.0718
     12 N         -11.8293  -17.8120   21.5496 N.ar    1  UNL1       -0.3128
     13 C         -13.3080  -17.8076   21.8016 C.3     1  UNL1        0.1316
     14 C          -5.6759  -19.4059   22.1893 C.3     1  UNL1        0.1137
     15 C          -4.2186  -20.6720   19.8929 C.3     1  UNL1        0.0307
     16 C          -3.5849  -19.5451   20.6536 C.ar    1  UNL1       -0.0245
     17 C          -2.2226  -19.0512   20.2660 C.ar    1  UNL1       -0.0045
     18 C          -1.5889  -17.9243   21.0267 C.ar    1  UNL1       -0.0007
     19 C          -2.3176  -17.2913   22.1749 C.ar    1  UNL1       -0.0045
     20 C          -3.6799  -17.7851   22.5624 C.ar    1  UNL1       -0.0245
     21 C          -4.4085  -17.1521   23.7106 C.3     1  UNL1        0.0307
     22 C          -4.3136  -18.9121   21.8018 C.ar    1  UNL1       -0.0105
@<TRIPOS>BOND
     1    15    16    1
     2    16    17   ar
     3    17    18   ar
     4    18    19   ar
     5    19    20   ar
     6    20    21    1
     7    20    22   ar
     8    22    14    1
     9    14     1    1
    10     1     3    1
    11     3     4   ar
    12     4     5   ar
    13     5     6   ar
    14     6     7   ar
    15     7     8   ar
    16     8     9   ar
    17     9    10   ar
    18    10    11    1
    19    10    12   ar
    20    12    13    1
    21    22    16   ar
    22     8     3   ar
    23    12     7   ar
    24     1     2    1
@<TRIPOS>MOLECULE
*****
 22 24 0 0 0
SMALL
GASTEIGER

@<TRIPOS>ATOM
      1 N          -8.7548  -18.3936   20.7797 N.pl3   1  UNL1       -0.3279
      2 H          -8.9192  -17.4792   20.4540 H       1  UNL1        0.1472
      3 C          -7.3489  -18.8771   20.9796 C.ar    1  UNL1        0.0642
      4 C          -6.8517  -20.0718   20.2211 C.ar    1  UNL1        0.0159
      5 C          -5.4459  -20.5552   20.4211 C.ar    1  UNL1        0.0028
      6 C          -4.5373  -19.8440   21.3796 C.ar    1  UNL1        0.0188
      7 C          -5.0346  -18.6492   22.1380 C.ar    1  UNL1        0.0799
      8 C          -6.4404  -18.1658   21.9381 C.ar    1  UNL1        0.1113
      9 N          -6.6490  -16.9698   22.8191 N.ar    1  UNL1       -0.2297
     10 C          -5.3722  -16.7141   23.5635 C.ar    1  UNL1        0.1208
     11 C          -5.1347  -15.6136   24.5548 C.3     1  UNL1        0.0718
     12 N          -4.3744  -17.7520   23.1426 N.ar    1  UNL1       -0.3128
     13 C          -2.9640  -17.8718   23.6391 C.3     1  UNL1        0.1316
     14 C          -9.9100  -19.3034   21.0759 C.3     1  UNL1        0.1137
     15 C          -9.3151  -20.5119   23.7565 C.3     1  UNL1        0.0307
     16 C         -10.5110  -19.6233   23.5832 C.ar    1  UNL1       -0.0245
     17 C         -11.4096  -19.3389   24.7502 C.ar    1  UNL1       -0.0045
     18 C         -12.6055  -18.4503   24.5768 C.ar    1  UNL1       -0.0007
     19 C         -12.9030  -17.8460   23.2365 C.ar    1  UNL1       -0.0045
     20 C         -12.0045  -18.1304   22.0696 C.ar    1  UNL1       -0.0245
     21 C         -12.3019  -17.5261   20.7293 C.3     1  UNL1        0.0307
     22 C         -10.8085  -19.0190   22.2429 C.ar    1  UNL1       -0.0105
@<TRIPOS>BOND
     1    15    16    1
     2    16    17   ar
     3    17    18   ar
     4    18    19   ar
     5    19    20   ar
     6    20    21    1
     7    20    22   ar
     8    22    14    1
     9    14     1    1
    10     1     3    1
    11     3     4   ar
    12     4     5   ar
    13     5     6   ar
    14     6     7   ar
    15     7     8   ar
    16     8     9   ar
    17     9    10   ar
    18    10    11    1
    19    10    12   ar
    20    12    13    1
    21    22    16   ar
    22     8     3   ar
    23    12     7   ar
    24     1     2    1
@<TRIPOS>MOLECULE
*****
 22 24 0 0 0
SMALL
GASTEIGER

@<TRIPOS>ATOM
      1 N          -7.3209  -19.0154   22.5077 N.pl3   1  UNL1       -0.3279
      2 H          -7.1944  -18.1305   22.9203 H       1  UNL1        0.1472
      3 C          -6.2385  -19.6066   21.6539 C.ar    1  UNL1        0.0642
      4 C          -6.4774  -20.8964   20.9264 C.ar    1  UNL1        0.0159
      5 C          -5.3950  -21.4875   20.0727 C.ar    1  UNL1        0.0028
      6 C          -4.0736  -20.7889   19.9465 C.ar    1  UNL1        0.0188
      7 C          -3.8347  -19.4991   20.6741 C.ar    1  UNL1        0.0799
      8 C          -4.9171  -18.9080   21.5278 C.ar    1  UNL1        0.1113
      9 N          -4.3949  -17.6334   22.1219 N.ar    1  UNL1       -0.2297
     10 C          -2.9897  -17.4369   21.6353 C.ar    1  UNL1        0.1208
     11 C          -2.0888  -16.2889   21.9826 C.3     1  UNL1        0.0718
     12 N          -2.6435  -18.5899   20.7405 N.ar    1  UNL1       -0.3128
     13 C          -1.3356  -18.7974   20.0359 C.3     1  UNL1        0.1316
     14 C          -8.5961  -19.7725   22.7328 C.3     1  UNL1        0.1137
     15 C         -10.0346  -18.5444   25.0615 C.3     1  UNL1        0.0307
     16 C         -10.6370  -18.4802   23.6893 C.ar    1  UNL1       -0.0245
     17 C         -11.9587  -17.8019   23.4813 C.ar    1  UNL1       -0.0045
     18 C         -12.5610  -17.7376   22.1091 C.ar    1  UNL1       -0.0007
     19 C         -11.8418  -18.3516   20.9448 C.ar    1  UNL1       -0.0045
     20 C         -10.5202  -19.0299   21.1527 C.ar    1  UNL1       -0.0245
     21 C          -9.8009  -19.6440   19.9884 C.3     1  UNL1        0.0307
     22 C          -9.9177  -19.0942   22.5250 C.ar    1  UNL1       -0.0105
@<TRIPOS>BOND
     1    15    16    1
     2    16    17   ar
     3    17    18   ar
     4    18    19   ar
     5    19    20   ar
     6    20    21    1
     7    20    22   ar
     8    22    14    1
     9    14     1    1
    10     1     3    1
    11     3     4   ar
    12     4     5   ar
    13     5     6   ar
    14     6     7   ar
    15     7     8   ar
    16     8     9   ar
    17     9    10   ar
    18    10    11    1
    19    10    12   ar
    20    12    13    1
    21    22    16   ar
    22     8     3   ar
    23    12     7   ar
    24     1     2    1
@<TRIPOS>MOLECULE
*****
 22 24 0 0 0
SMALL
GASTEIGER

@<TRIPOS>ATOM
      1 N          -9.0778  -15.4960   22.5466 N.pl3   1  UNL1       -0.3279
      2 H          -9.1630  -14.7819   21.8743 H       1  UNL1        0.1472
      3 C          -7.7258  -15.8652   23.0814 C.ar    1  UNL1        0.0642
      4 C          -7.1033  -15.0489   24.1751 C.ar    1  UNL1        0.0159
      5 C          -5.7515  -15.4182   24.7098 C.ar    1  UNL1        0.0028
      6 C          -5.0220  -16.6037   24.1509 C.ar    1  UNL1        0.0188
      7 C          -5.6445  -17.4200   23.0572 C.ar    1  UNL1        0.0799
      8 C          -6.9964  -17.0507   22.5225 C.ar    1  UNL1        0.1113
      9 N          -7.3555  -18.0358   21.4497 N.ar    1  UNL1       -0.2297
     10 C          -6.2255  -19.0139   21.3214 C.ar    1  UNL1        0.1208
     11 C          -6.1637  -20.1696   20.3672 C.3     1  UNL1        0.0718
     12 N          -5.1680  -18.6333   22.3149 N.ar    1  UNL1       -0.3128
     13 C          -3.8632  -19.3416   22.5287 C.3     1  UNL1        0.1316
     14 C         -10.2999  -16.2147   23.0363 C.3     1  UNL1        0.1137
     15 C         -11.2516  -16.8471   20.2624 C.3     1  UNL1        0.0307
     16 C         -11.0200  -17.9551   21.2467 C.ar    1  UNL1       -0.0245
     17 C         -11.2643  -19.3793   20.8441 C.ar    1  UNL1       -0.0045
     18 C         -11.0328  -20.4872   21.8284 C.ar    1  UNL1       -0.0007
     19 C         -10.5569  -20.1710   23.2154 C.ar    1  UNL1       -0.0045
     20 C         -10.3126  -18.7468   23.6180 C.ar    1  UNL1       -0.0245
     21 C          -9.8368  -18.4306   25.0049 C.3     1  UNL1        0.0307
     22 C         -10.5442  -17.6388   22.6337 C.ar    1  UNL1       -0.0105
@<TRIPOS>BOND
     1    15    16    1
     2    16    17   ar
     3    17    18   ar
     4    18    19   ar
     5    19    20   ar
     6    20    21    1
     7    20    22   ar
     8    22    14    1
     9    14     1    1
    10     1     3    1
    11     3     4   ar
    12     4     5   ar
    13     5     6   ar
    14     6     7   ar
    15     7     8   ar
    16     8     9   ar
    17     9    10   ar
    18    10    11    1
    19    10    12   ar
    20    12    13    1
    21    22    16   ar
    22     8     3   ar
    23    12     7   ar
    24     1     2    1
@<TRIPOS>MOLECULE
*****
 22 24 0 0 0
SMALL
GASTEIGER

@<TRIPOS>ATOM
      1 N          -6.8266  -18.5630   20.7652 N.pl3   1  UNL1       -0.3279
      2 H          -6.4789  -17.9472   20.0803 H       1  UNL1        0.1472
      3 C          -8.3036  -18.7972   20.8829 C.ar    1  UNL1        0.0642
      4 C          -9.0867  -19.2613   19.6907 C.ar    1  UNL1        0.0159
      5 C         -10.5636  -19.4955   19.8084 C.ar    1  UNL1        0.0028
      6 C         -11.2573  -19.2656   21.1183 C.ar    1  UNL1        0.0188
      7 C         -10.4742  -18.8015   22.3105 C.ar    1  UNL1        0.0799
      8 C          -8.9973  -18.5674   22.1928 C.ar    1  UNL1        0.1113
      9 N          -8.4918  -18.1139   23.5303 N.ar    1  UNL1       -0.2297
     10 C          -9.6563  -18.0679   24.4746 C.ar    1  UNL1        0.1208
     11 C          -9.6047  -17.6673   25.9193 C.3     1  UNL1        0.0718
     12 N         -10.8815  -18.4929   23.7208 N.ar    1  UNL1       -0.3128
     13 C         -12.2702  -18.5918   24.2791 C.3     1  UNL1        0.1316
     14 C          -5.8795  -19.2671   21.6911 C.3     1  UNL1        0.1137
     15 C          -4.0375  -20.7129   19.8158 C.3     1  UNL1        0.0307
     16 C          -3.4970  -19.6533   20.7295 C.ar    1  UNL1       -0.0245
     17 C          -2.0354  -19.3165   20.7057 C.ar    1  UNL1       -0.0045
     18 C          -1.4949  -18.2569   21.6195 C.ar    1  UNL1       -0.0007
     19 C          -2.4159  -17.5340   22.5571 C.ar    1  UNL1       -0.0045
     20 C          -3.8774  -17.8707   22.5810 C.ar    1  UNL1       -0.0245
     21 C          -4.7984  -17.1478   23.5187 C.3     1  UNL1        0.0307
     22 C          -4.4180  -18.9304   21.6672 C.ar    1  UNL1       -0.0105
@<TRIPOS>BOND
     1    15    16    1
     2    16    17   ar
     3    17    18   ar
     4    18    19   ar
     5    19    20   ar
     6    20    21    1
     7    20    22   ar
     8    22    14    1
     9    14     1    1
    10     1     3    1
    11     3     4   ar
    12     4     5   ar
    13     5     6   ar
    14     6     7   ar
    15     7     8   ar
    16     8     9   ar
    17     9    10   ar
    18    10    11    1
    19    10    12   ar
    20    12    13    1
    21    22    16   ar
    22     8     3   ar
    23    12     7   ar
    24     1     2    1
@<TRIPOS>MOLECULE
*****
 22 24 0 0 0
SMALL
GASTEIGER

@<TRIPOS>ATOM
      1 N          -8.4512  -18.4150   21.0477 N.pl3   1  UNL1       -0.3279
      2 H          -8.4223  -18.2014   20.0871 H       1  UNL1        0.1472
      3 C          -7.4799  -17.7673   21.9897 C.ar    1  UNL1        0.0642
      4 C          -7.9559  -16.7261   22.9589 C.ar    1  UNL1        0.0159
      5 C          -6.9847  -16.0785   23.9008 C.ar    1  UNL1        0.0028
      6 C          -5.5374  -16.4719   23.8734 C.ar    1  UNL1        0.0188
      7 C          -5.0615  -17.5131   22.9042 C.ar    1  UNL1        0.0799
      8 C          -6.0327  -18.1607   21.9623 C.ar    1  UNL1        0.1113
      9 N          -5.2768  -19.1487   21.1240 N.ar    1  UNL1       -0.2297
     10 C          -3.8384  -19.1115   21.5478 C.ar    1  UNL1        0.1208
     11 C          -2.7280  -19.9398   20.9724 C.3     1  UNL1        0.0718
     12 N          -3.7053  -18.1007   22.6480 N.ar    1  UNL1       -0.3128
     13 C          -2.4385  -17.7407   23.3661 C.3     1  UNL1        0.1316
     14 C          -9.4664  -19.3882   21.5694 C.3     1  UNL1        0.1137
     15 C          -9.9594  -19.9543   24.4740 C.3     1  UNL1        0.0307
     16 C         -10.9627  -19.1694   23.6820 C.ar    1  UNL1       -0.0245
     17 C         -12.2126  -18.6675   24.3424 C.ar    1  UNL1       -0.0045
     18 C         -13.2159  -17.8826   23.5504 C.ar    1  UNL1       -0.0007
     19 C         -12.9694  -17.5996   22.0981 C.ar    1  UNL1       -0.0045
     20 C         -11.7196  -18.1014   21.4378 C.ar    1  UNL1       -0.0245
     21 C         -11.4732  -17.8183   19.9855 C.3     1  UNL1        0.0307
     22 C         -10.7162  -18.8863   22.2297 C.ar    1  UNL1       -0.0105
@<TRIPOS>BOND
     1    15    16    1
     2    16    17   ar
     3    17    18   ar
     4    18    19   ar
     5    19    20   ar
     6    20    21    1
     7    20    22   ar
     8    22    14    1
     9    14     1    1
    10     1     3    1
    11     3     4   ar
    12     4     5   ar
    13     5     6   ar
    14     6     7   ar
    15     7     8   ar
    16     8     9   ar
    17     9    10   ar
    18    10    11    1
    19    10    12   ar
    20    12    13    1
    21    22    16   ar
    22     8     3   ar
    23    12     7   ar
    24     1     2    1
@<TRIPOS>MOLECULE
*****
 22 24 0 0 0
SMALL
GASTEIGER

@<TRIPOS>ATOM
      1 N          -8.3114  -19.1110   21.3579 N.pl3   1  UNL1       -0.3279
      2 H          -8.2127  -19.1774   20.3806 H       1  UNL1        0.1472
      3 C          -7.3759  -18.2454   22.1491 C.ar    1  UNL1        0.0642
      4 C          -7.9190  -17.1335   22.9968 C.ar    1  UNL1        0.0159
      5 C          -6.9835  -16.2680   23.7878 C.ar    1  UNL1        0.0028
      6 C          -5.5050  -16.5145   23.7312 C.ar    1  UNL1        0.0188
      7 C          -4.9619  -17.6264   22.8836 C.ar    1  UNL1        0.0799
      8 C          -5.8974  -18.4919   22.0925 C.ar    1  UNL1        0.1113
      9 N          -5.0764  -19.5053   21.3514 N.ar    1  UNL1       -0.2297
     10 C          -3.6336  -19.2661   21.6846 C.ar    1  UNL1        0.1208
     11 C          -2.4663  -20.0504   21.1625 C.3     1  UNL1        0.0718
     12 N          -3.5628  -18.1049   22.6315 N.ar    1  UNL1       -0.3128
     13 C          -2.3125  -17.5241   23.2225 C.3     1  UNL1        0.1316
     14 C          -9.3971  -19.8753   22.0559 C.3     1  UNL1        0.1137
     15 C         -11.1256  -18.5691   19.9808 C.3     1  UNL1        0.0307
     16 C         -11.5259  -18.5258   21.4257 C.ar    1  UNL1       -0.0245
     17 C         -12.7904  -17.8294   21.8331 C.ar    1  UNL1       -0.0045
     18 C         -13.1907  -17.7862   23.2781 C.ar    1  UNL1       -0.0007
     19 C         -12.3264  -18.4392   24.3156 C.ar    1  UNL1       -0.0045
     20 C         -11.0619  -19.1356   23.9083 C.ar    1  UNL1       -0.0245
     21 C         -10.1976  -19.7887   24.9458 C.3     1  UNL1        0.0307
     22 C         -10.6616  -19.1789   22.4633 C.ar    1  UNL1       -0.0105
@<TRIPOS>BOND
     1    15    16    1
     2    16    17   ar
     3    17    18   ar
     4    18    19   ar
     5    19    20   ar
     6    20    21    1
     7    20    22   ar
     8    22    14    1
     9    14     1    1
    10     1     3    1
    11     3     4   ar
    12     4     5   ar
    13     5     6   ar
    14     6     7   ar
    15     7     8   ar
    16     8     9   ar
    17     9    10   ar
    18    10    11    1
    19    10    12   ar
    20    12    13    1
    21    22    16   ar
    22     8     3   ar
    23    12     7   ar
    24     1     2    1
