@<TRIPOS>MOLECULE
*****
 29 32 0 0 0
SMALL
GASTEIGER

@<TRIPOS>ATOM
      1 C          -7.6791  -17.9759   21.6056 C.ar    1  UNL1        0.0811
      2 C          -7.8122  -17.1768   22.8680 C.ar    1  UNL1        0.0338
      3 C          -6.6236  -16.9840   23.7623 C.ar    1  UNL1        0.0728
      4 C          -5.3019  -17.5903   23.3943 C.ar    1  UNL1        0.0961
      5 N          -5.1688  -18.3894   22.1319 N.ar    1  UNL1       -0.2907
      6 C          -4.0027  -19.1015   21.5130 C.ar    1  UNL1        0.0567
      7 C          -2.6127  -19.1689   22.0728 C.3     1  UNL1        0.0517
      8 C          -4.4706  -19.7345   20.2361 C.ar    1  UNL1        0.0730
      9 C          -3.6306  -20.5459   19.2948 C.3     1  UNL1        0.0534
     10 N          -5.9259  -19.4135   20.0659 N.ar    1  UNL1       -0.2299
     11 C          -6.3574  -18.5822   21.2376 C.ar    1  UNL1        0.1604
     12 N          -6.7567  -16.1848   25.0248 N.am    1  UNL1       -0.2572
     13 C          -5.5967  -15.3771   25.5268 C.3     1  UNL1        0.0983
     14 C          -5.7297  -14.5779   26.7892 C.3     1  UNL1        0.0224
     15 C          -7.0227  -14.5865   27.5496 C.3     1  UNL1        0.0113
     16 C          -8.1827  -15.3943   27.0476 C.3     1  UNL1        0.0857
     17 C          -8.0496  -16.1935   25.7851 C.2     1  UNL1        0.2294
     18 O          -9.2095  -17.0012   25.2831 O.2     1  UNL1       -0.2745
     19 N          -8.8678  -18.1688   20.7112 N.pl3   1  UNL1       -0.3267
     20 H          -8.9592  -17.6315   19.8913 H       1  UNL1        0.1472
     21 C          -9.9171  -19.1803   21.0659 C.3     1  UNL1        0.1137
     22 C         -12.2122  -17.3194   20.5468 C.3     1  UNL1        0.0307
     23 C         -12.0525  -17.9551   21.8959 C.ar    1  UNL1       -0.0245
     24 C         -13.0404  -17.6604   22.9856 C.ar    1  UNL1       -0.0045
     25 C         -12.8807  -18.2961   24.3348 C.ar    1  UNL1       -0.0007
     26 C         -11.7331  -19.2265   24.5944 C.ar    1  UNL1       -0.0045
     27 C         -10.7453  -19.5213   23.5048 C.ar    1  UNL1       -0.0245
     28 C          -9.5977  -20.4517   23.7644 C.3     1  UNL1        0.0307
     29 C         -10.9049  -18.8855   22.1555 C.ar    1  UNL1       -0.0105
@<TRIPOS>BOND
     1    22    23    1
     2    23    24   ar
     3    24    25   ar
     4    25    26   ar
     5    26    27   ar
     6    27    28    1
     7    27    29   ar
     8    29    21    1
     9    21    19    1
    10    19     1    1
    11     1     2   ar
    12     2     3   ar
    13     3    12    1
    14    12    13    1
    15    13    14    1
    16    14    15    1
    17    15    16    1
    18    16    17    1
    19    17    18    2
    20     3     4   ar
    21     4     5   ar
    22     5     6   ar
    23     6     7    1
    24     6     8   ar
    25     8     9    1
    26     8    10   ar
    27    10    11   ar
    28    29    23   ar
    29    11     1   ar
    30    17    12   am
    31    11     5   ar
    32    19    20    1
@<TRIPOS>MOLECULE
*****
 29 32 0 0 0
SMALL
GASTEIGER

@<TRIPOS>ATOM
      1 C          -7.3153  -17.8028   22.1013 C.ar    1  UNL1        0.0811
      2 C          -5.9912  -18.1642   21.4963 C.ar    1  UNL1        0.0338
      3 C          -4.7189  -17.7510   22.1748 C.ar    1  UNL1        0.0728
      4 C          -4.7707  -16.9762   23.4582 C.ar    1  UNL1        0.0961
      5 N          -6.0948  -16.6147   24.0631 N.ar    1  UNL1       -0.2907
      6 C          -6.4572  -15.8631   25.3096 C.ar    1  UNL1        0.0567
      7 C          -5.4926  -15.2674   26.2917 C.3     1  UNL1        0.0517
      8 C          -7.9535  -15.8119   25.4015 C.ar    1  UNL1        0.0730
      9 C          -8.7479  -15.1559   26.4918 C.3     1  UNL1        0.0534
     10 N          -8.5159  -16.5318   24.2119 N.ar    1  UNL1       -0.2299
     11 C          -7.3671  -17.0280   23.3847 C.ar    1  UNL1        0.1604
     12 N          -3.3947  -18.1124   21.5699 N.am    1  UNL1       -0.2572
     13 C          -3.0957  -19.5394   21.2173 C.3     1  UNL1        0.0983
     14 C          -1.7716  -19.9009   20.6124 C.3     1  UNL1        0.0224
     15 C          -0.7463  -18.8354   20.3600 C.3     1  UNL1        0.0113
     16 C          -1.0453  -17.4084   20.7126 C.3     1  UNL1        0.0857
     17 C          -2.3695  -17.0469   21.3175 C.2     1  UNL1        0.2294
     18 O          -2.6685  -15.6199   21.6701 O.2     1  UNL1       -0.2745
     19 N          -8.5878  -18.2161   21.4228 N.pl3   1  UNL1       -0.3267
     20 H          -8.8322  -17.8235   20.5537 H       1  UNL1        0.1472
     21 C          -9.4878  -19.2275   22.0687 C.3     1  UNL1        0.1137
     22 C         -11.4870  -17.9196   20.2541 C.3     1  UNL1        0.0307
     23 C         -11.8244  -18.1543   21.6967 C.ar    1  UNL1       -0.0245
     24 C         -13.1615  -17.7351   22.2321 C.ar    1  UNL1       -0.0045
     25 C         -13.4988  -17.9697   23.6746 C.ar    1  UNL1       -0.0007
     26 C         -12.4992  -18.6236   24.5819 C.ar    1  UNL1       -0.0045
     27 C         -11.1622  -19.0429   24.0466 C.ar    1  UNL1       -0.0245
     28 C         -10.1626  -19.6968   24.9539 C.3     1  UNL1        0.0307
     29 C         -10.8248  -18.8082   22.6040 C.ar    1  UNL1       -0.0105
@<TRIPOS>BOND
     1    22    23    1
     2    23    24   ar
     3    24    25   ar
     4    25    26   ar
     5    26    27   ar
     6    27    28    1
     7    27    29   ar
     8    29    21    1
     9    21    19    1
    10    19     1    1
    11     1     2   ar
    12     2     3   ar
    13     3    12    1
    14    12    13    1
    15    13    14    1
    16    14    15    1
    17    15    16    1
    18    16    17    1
    19    17    18    2
    20     3     4   ar
    21     4     5   ar
    22     5     6   ar
    23     6     7    1
    24     6     8   ar
    25     8     9    1
    26     8    10   ar
    27    10    11   ar
    28    29    23   ar
    29    11     1   ar
    30    17    12   am
    31    11     5   ar
    32    19    20    1
@<TRIPOS>MOLECULE
*****
 29 32 0 0 0
SMALL
GASTEIGER

@<TRIPOS>ATOM
      1 C          -5.9749  -16.3843   23.6909 C.ar    1  UNL1        0.0811
      2 C          -6.9894  -17.1398   22.8848 C.ar    1  UNL1        0.0338
      3 C          -8.4026  -17.2539   23.3745 C.ar    1  UNL1        0.0728
      4 C          -8.8013  -16.6123   24.6705 C.ar    1  UNL1        0.0961
      5 N          -7.7868  -15.8568   25.4766 N.ar    1  UNL1       -0.2907
      6 C          -7.8854  -15.1248   26.7822 C.ar    1  UNL1        0.0567
      7 C          -9.1195  -14.9840   27.6230 C.3     1  UNL1        0.0517
      8 C          -6.5331  -14.5584   27.0994 C.ar    1  UNL1        0.0730
      9 C          -6.1776  -13.7518   28.3131 C.3     1  UNL1        0.0534
     10 N          -5.5988  -14.9403   25.9898 N.ar    1  UNL1       -0.2299
     11 C          -6.3737  -15.7427   24.9869 C.ar    1  UNL1        0.1604
     12 N          -9.4171  -18.0095   22.5684 N.am    1  UNL1       -0.2572
     13 C          -9.7555  -19.4262   22.9266 C.3     1  UNL1        0.0983
     14 C         -10.7700  -20.1818   22.1205 C.3     1  UNL1        0.0224
     15 C         -11.4461  -19.5207   20.9561 C.3     1  UNL1        0.0113
     16 C         -11.1077  -18.1039   20.5978 C.3     1  UNL1        0.0857
     17 C         -10.0932  -17.3483   21.4040 C.2     1  UNL1        0.2294
     18 O          -9.7548  -15.9316   21.0458 O.2     1  UNL1       -0.2745
     19 N          -4.5617  -16.2702   23.2012 N.pl3   1  UNL1       -0.3267
     20 H          -4.1984  -15.3914   22.9464 H       1  UNL1        0.1472
     21 C          -3.7020  -17.4952   23.0997 C.3     1  UNL1        0.1137
     22 C          -1.5726  -16.2395   21.4000 C.3     1  UNL1        0.0307
     23 C          -2.3127  -17.4466   20.9048 C.ar    1  UNL1       -0.0245
     24 C          -1.9882  -18.0258   19.5597 C.ar    1  UNL1       -0.0045
     25 C          -2.7283  -19.2329   19.0646 C.ar    1  UNL1       -0.0007
     26 C          -3.7930  -19.8607   19.9145 C.ar    1  UNL1       -0.0045
     27 C          -4.1175  -19.2815   21.2595 C.ar    1  UNL1       -0.0245
     28 C          -5.1822  -19.9093   22.1094 C.3     1  UNL1        0.0307
     29 C          -3.3774  -18.0744   21.7547 C.ar    1  UNL1       -0.0105
@<TRIPOS>BOND
     1    22    23    1
     2    23    24   ar
     3    24    25   ar
     4    25    26   ar
     5    26    27   ar
     6    27    28    1
     7    27    29   ar
     8    29    21    1
     9    21    19    1
    10    19     1    1
    11     1     2   ar
    12     2     3   ar
    13     3    12    1
    14    12    13    1
    15    13    14    1
    16    14    15    1
    17    15    16    1
    18    16    17    1
    19    17    18    2
    20     3     4   ar
    21     4     5   ar
    22     5     6   ar
    23     6     7    1
    24     6     8   ar
    25     8     9    1
    26     8    10   ar
    27    10    11   ar
    28    29    23   ar
    29    11     1   ar
    30    17    12   am
    31    11     5   ar
    32    19    20    1
@<TRIPOS>MOLECULE
*****
 29 32 0 0 0
SMALL
GASTEIGER

@<TRIPOS>ATOM
      1 C          -7.0513  -18.4677   21.8616 C.ar    1  UNL1        0.0811
      2 C          -6.7954  -17.7518   23.1546 C.ar    1  UNL1        0.0338
      3 C          -7.9058  -17.0021   23.8291 C.ar    1  UNL1        0.0728
      4 C          -9.2719  -16.9683   23.2107 C.ar    1  UNL1        0.0961
      5 N          -9.5278  -17.6842   21.9177 N.ar    1  UNL1       -0.2907
      6 C         -10.7615  -17.8272   21.0766 C.ar    1  UNL1        0.0567
      7 C         -12.1068  -17.2358   21.3771 C.3     1  UNL1        0.0517
      8 C         -10.4136  -18.6652   19.8821 C.ar    1  UNL1        0.0730
      9 C         -11.3502  -19.0591   18.7785 C.3     1  UNL1        0.0534
     10 N          -8.9650  -19.0403   19.9850 N.ar    1  UNL1       -0.2299
     11 C          -8.4175  -18.4339   21.2431 C.ar    1  UNL1        0.1604
     12 N          -7.6499  -16.2861   25.1222 N.am    1  UNL1       -0.2572
     13 C          -8.4993  -16.5801   26.3231 C.3     1  UNL1        0.0983
     14 C          -8.2436  -15.8641   27.6161 C.3     1  UNL1        0.0224
     15 C          -7.1383  -14.8541   27.7083 C.3     1  UNL1        0.0113
     16 C          -6.2889  -14.5601   26.5075 C.3     1  UNL1        0.0857
     17 C          -6.5448  -15.2761   25.2144 C.2     1  UNL1        0.2294
     18 O          -5.6953  -14.9821   24.0135 O.2     1  UNL1       -0.2745
     19 N          -5.9409  -19.2175   21.1869 N.pl3   1  UNL1       -0.3267
     20 H          -6.0922  -19.6362   20.3088 H       1  UNL1        0.1472
     21 C          -4.6002  -19.3293   21.8502 C.3     1  UNL1        0.1137
     22 C          -3.3832  -17.0183   23.3261 C.3     1  UNL1        0.0307
     23 C          -2.8076  -17.4557   22.0118 C.ar    1  UNL1       -0.0245
     24 C          -1.6235  -16.7375   21.4354 C.ar    1  UNL1       -0.0045
     25 C          -1.0479  -17.1749   20.1212 C.ar    1  UNL1       -0.0007
     26 C          -1.6564  -18.3304   19.3832 C.ar    1  UNL1       -0.0045
     27 C          -2.8405  -19.0485   19.9595 C.ar    1  UNL1       -0.0245
     28 C          -3.4490  -20.2040   19.2216 C.3     1  UNL1        0.0307
     29 C          -3.4161  -18.6111   21.2739 C.ar    1  UNL1       -0.0105
@<TRIPOS>BOND
     1    22    23    1
     2    23    24   ar
     3    24    25   ar
     4    25    26   ar
     5    26    27   ar
     6    27    28    1
     7    27    29   ar
     8    29    21    1
     9    21    19    1
    10    19     1    1
    11     1     2   ar
    12     2     3   ar
    13     3    12    1
    14    12    13    1
    15    13    14    1
    16    14    15    1
    17    15    16    1
    18    16    17    1
    19    17    18    2
    20     3     4   ar
    21     4     5   ar
    22     5     6   ar
    23     6     7    1
    24     6     8   ar
    25     8     9    1
    26     8    10   ar
    27    10    11   ar
    28    29    23   ar
    29    11     1   ar
    30    17    12   am
    31    11     5   ar
    32    19    20    1
@<TRIPOS>MOLECULE
*****
 29 32 0 0 0
SMALL
GASTEIGER

@<TRIPOS>ATOM
      1 C          -8.7102  -19.2918   23.1846 C.ar    1  UNL1        0.0811
      2 C          -7.6326  -19.8006   22.2736 C.ar    1  UNL1        0.0338
      3 C          -6.3718  -19.0093   22.0883 C.ar    1  UNL1        0.0728
      4 C          -6.1887  -17.7094   22.8139 C.ar    1  UNL1        0.0961
      5 N          -7.2663  -17.2007   23.7249 N.ar    1  UNL1       -0.2907
      6 C          -7.3678  -15.9631   24.5664 C.ar    1  UNL1        0.0567
      7 C          -6.3283  -14.8879   24.6821 C.3     1  UNL1        0.0517
      8 C          -8.6914  -15.9894   25.2717 C.ar    1  UNL1        0.0730
      9 C          -9.2078  -14.9451   26.2167 C.3     1  UNL1        0.0534
     10 N          -9.4078  -17.2433   24.8663 N.ar    1  UNL1       -0.2299
     11 C          -8.5270  -17.9919   23.9103 C.ar    1  UNL1        0.1604
     12 N          -5.2941  -19.5180   21.1772 N.am    1  UNL1       -0.2572
     13 C          -5.5378  -20.7337   20.3330 C.3     1  UNL1        0.0983
     14 C          -4.4602  -21.2424   19.4220 C.3     1  UNL1        0.0224
     15 C          -3.1389  -20.5354   19.3552 C.3     1  UNL1        0.0113
     16 C          -2.8952  -19.3197   20.1994 C.3     1  UNL1        0.0857
     17 C          -3.9729  -18.8110   21.1105 C.2     1  UNL1        0.2294
     18 O          -3.7293  -17.5953   21.9547 O.2     1  UNL1       -0.2745
     19 N          -9.9710  -20.0831   23.3700 N.pl3   1  UNL1       -0.3267
     20 H         -10.1025  -20.6152   24.1878 H       1  UNL1        0.1472
     21 C         -11.0315  -20.0635   22.3093 C.3     1  UNL1        0.1137
     22 C         -12.7615  -18.0587   23.7192 C.3     1  UNL1        0.0307
     23 C         -12.2557  -17.7721   22.3365 C.ar    1  UNL1       -0.0245
     24 C         -12.6148  -16.4830   21.6587 C.ar    1  UNL1       -0.0045
     25 C         -12.1090  -16.1964   20.2760 C.ar    1  UNL1       -0.0007
     26 C         -11.2440  -17.1988   19.5710 C.ar    1  UNL1       -0.0045
     27 C         -10.8848  -18.4878   20.2488 C.ar    1  UNL1       -0.0245
     28 C         -10.0198  -19.4903   19.5438 C.3     1  UNL1        0.0307
     29 C         -11.3907  -18.7745   21.6316 C.ar    1  UNL1       -0.0105
@<TRIPOS>BOND
     1    22    23    1
     2    23    24   ar
     3    24    25   ar
     4    25    26   ar
     5    26    27   ar
     6    27    28    1
     7    27    29   ar
     8    29    21    1
     9    21    19    1
    10    19     1    1
    11     1     2   ar
    12     2     3   ar
    13     3    12    1
    14    12    13    1
    15    13    14    1
    16    14    15    1
    17    15    16    1
    18    16    17    1
    19    17    18    2
    20     3     4   ar
    21     4     5   ar
    22     5     6   ar
    23     6     7    1
    24     6     8   ar
    25     8     9    1
    26     8    10   ar
    27    10    11   ar
    28    29    23   ar
    29    11     1   ar
    30    17    12   am
    31    11     5   ar
    32    19    20    1
@<TRIPOS>MOLECULE
*****
 29 32 0 0 0
SMALL
GASTEIGER

@<TRIPOS>ATOM
      1 C          -7.0645  -17.8415   22.0057 C.ar    1  UNL1        0.0811
      2 C          -5.7218  -18.1154   21.3958 C.ar    1  UNL1        0.0338
      3 C          -4.4777  -17.6078   22.0623 C.ar    1  UNL1        0.0728
      4 C          -4.5762  -16.8262   23.3388 C.ar    1  UNL1        0.0961
      5 N          -5.9189  -16.5523   23.9488 N.ar    1  UNL1       -0.2907
      6 C          -6.3259  -15.8159   25.1906 C.ar    1  UNL1        0.0567
      7 C          -5.3997  -15.1448   26.1611 C.3     1  UNL1        0.0517
      8 C          -7.8216  -15.8684   25.2915 C.ar    1  UNL1        0.0730
      9 C          -8.6537  -15.2590   26.3807 C.3     1  UNL1        0.0534
     10 N          -8.3390  -16.6373   24.1121 N.ar    1  UNL1       -0.2299
     11 C          -7.1631  -17.0600   23.2822 C.ar    1  UNL1        0.1604
     12 N          -3.1349  -17.8817   21.4524 N.am    1  UNL1       -0.2572
     13 C          -2.2800  -16.7437   20.9789 C.3     1  UNL1        0.0983
     14 C          -0.9373  -17.0175   20.3690 C.3     1  UNL1        0.0224
     15 C          -0.4493  -18.4294   20.2325 C.3     1  UNL1        0.0113
     16 C          -1.3042  -19.5674   20.7060 C.3     1  UNL1        0.0857
     17 C          -2.6470  -19.2935   21.3160 C.2     1  UNL1        0.2294
     18 O          -3.5018  -20.4315   21.7895 O.2     1  UNL1       -0.2745
     19 N          -8.3088  -18.3491   21.3392 N.pl3   1  UNL1       -0.3267
     20 H          -8.5328  -18.0561   20.4264 H       1  UNL1        0.1472
     21 C          -9.2116  -19.3032   22.0634 C.3     1  UNL1        0.1137
     22 C         -10.0460  -19.6659   24.9221 C.3     1  UNL1        0.0307
     23 C         -10.9890  -19.0373   23.9396 C.ar    1  UNL1       -0.0245
     24 C         -12.3493  -18.5900   24.3864 C.ar    1  UNL1       -0.0045
     25 C         -13.2924  -17.9615   23.4038 C.ar    1  UNL1       -0.0007
     26 C         -12.8753  -17.7802   21.9744 C.ar    1  UNL1       -0.0045
     27 C         -11.5150  -18.2274   21.5276 C.ar    1  UNL1       -0.0245
     28 C         -11.0979  -18.0461   20.0983 C.3     1  UNL1        0.0307
     29 C         -10.5719  -18.8560   22.5102 C.ar    1  UNL1       -0.0105
@<TRIPOS>BOND
     1    22    23    1
     2    23    24   ar
     3    24    25   ar
     4    25    26   ar
     5    26    27   ar
     6    27    28    1
     7    27    29   ar
     8    29    21    1
     9    21    19    1
    10    19     1    1
    11     1     2   ar
    12     2     3   ar
    13     3    12    1
    14    12    13    1
    15    13    14    1
    16    14    15    1
    17    15    16    1
    18    16    17    1
    19    17    18    2
    20     3     4   ar
    21     4     5   ar
    22     5     6   ar
    23     6     7    1
    24     6     8   ar
    25     8     9    1
    26     8    10   ar
    27    10    11   ar
    28    29    23   ar
    29    11     1   ar
    30    17    12   am
    31    11     5   ar
    32    19    20    1
@<TRIPOS>MOLECULE
*****
 29 32 0 0 0
SMALL
GASTEIGER

@<TRIPOS>ATOM
      1 C          -6.0318  -16.3495   23.6586 C.ar    1  UNL1        0.0811
      2 C          -7.0499  -17.0802   22.8342 C.ar    1  UNL1        0.0338
      3 C          -8.4637  -17.1990   23.3210 C.ar    1  UNL1        0.0728
      4 C          -8.8595  -16.5871   24.6321 C.ar    1  UNL1        0.0961
      5 N          -7.8414  -15.8564   25.4564 N.ar    1  UNL1       -0.2907
      6 C          -7.9366  -15.1559   26.7793 C.ar    1  UNL1        0.0567
      7 C          -9.1702  -15.0293   27.6232 C.3     1  UNL1        0.0517
      8 C          -6.5815  -14.6041   27.1103 C.ar    1  UNL1        0.0730
      9 C          -6.2222  -13.8289   28.3432 C.3     1  UNL1        0.0534
     10 N          -5.6489  -14.9637   25.9918 N.ar    1  UNL1       -0.2299
     11 C          -6.4276  -15.7376   24.9697 C.ar    1  UNL1        0.1604
     12 N          -9.4819  -17.9297   22.4966 N.am    1  UNL1       -0.2572
     13 C         -10.2369  -17.2049   21.4221 C.3     1  UNL1        0.0983
     14 C         -11.2550  -17.9356   20.5977 C.3     1  UNL1        0.0224
     15 C         -11.5181  -19.3910   20.8479 C.3     1  UNL1        0.0113
     16 C         -10.7631  -20.1158   21.9224 C.3     1  UNL1        0.0857
     17 C          -9.7449  -19.3851   22.7468 C.2     1  UNL1        0.2294
     18 O          -8.9899  -20.1098   23.8213 O.2     1  UNL1       -0.2745
     19 N          -4.6179  -16.2307   23.1719 N.pl3   1  UNL1       -0.3267
     20 H          -4.2636  -15.3540   22.8979 H       1  UNL1        0.1472
     21 C          -3.7439  -17.4478   23.1025 C.3     1  UNL1        0.1137
     22 C          -5.2908  -19.8468   22.1796 C.3     1  UNL1        0.0307
     23 C          -4.2081  -19.2740   21.3138 C.ar    1  UNL1       -0.0245
     24 C          -3.8988  -19.9006   19.9865 C.ar    1  UNL1       -0.0045
     25 C          -2.8161  -19.3278   19.1207 C.ar    1  UNL1       -0.0007
     26 C          -2.0427  -18.1283   19.5822 C.ar    1  UNL1       -0.0045
     27 C          -2.3519  -17.5016   20.9094 C.ar    1  UNL1       -0.0245
     28 C          -1.5785  -16.3021   21.3709 C.3     1  UNL1        0.0307
     29 C          -3.4346  -18.0745   21.7753 C.ar    1  UNL1       -0.0105
@<TRIPOS>BOND
     1    22    23    1
     2    23    24   ar
     3    24    25   ar
     4    25    26   ar
     5    26    27   ar
     6    27    28    1
     7    27    29   ar
     8    29    21    1
     9    21    19    1
    10    19     1    1
    11     1     2   ar
    12     2     3   ar
    13     3    12    1
    14    12    13    1
    15    13    14    1
    16    14    15    1
    17    15    16    1
    18    16    17    1
    19    17    18    2
    20     3     4   ar
    21     4     5   ar
    22     5     6   ar
    23     6     7    1
    24     6     8   ar
    25     8     9    1
    26     8    10   ar
    27    10    11   ar
    28    29    23   ar
    29    11     1   ar
    30    17    12   am
    31    11     5   ar
    32    19    20    1
@<TRIPOS>MOLECULE
*****
 29 32 0 0 0
SMALL
GASTEIGER

@<TRIPOS>ATOM
      1 C          -7.0056  -18.4717   21.7815 C.ar    1  UNL1        0.0811
      2 C          -6.7416  -17.7678   23.0795 C.ar    1  UNL1        0.0338
      3 C          -7.8572  -17.0588   23.7885 C.ar    1  UNL1        0.0728
      4 C          -9.2367  -17.0536   23.1996 C.ar    1  UNL1        0.0961
      5 N          -9.5007  -17.7575   21.9016 N.ar    1  UNL1       -0.2907
      6 C         -10.7479  -17.9221   21.0846 C.ar    1  UNL1        0.0567
      7 C         -12.1020  -17.3724   21.4224 C.3     1  UNL1        0.0517
      8 C         -10.4031  -18.7329   19.8706 C.ar    1  UNL1        0.0730
      9 C         -11.3521  -19.1363   18.7811 C.3     1  UNL1        0.0534
     10 N          -8.9429  -19.0694   19.9373 N.ar    1  UNL1       -0.2299
     11 C          -8.3852  -18.4665   21.1926 C.ar    1  UNL1        0.1604
     12 N          -7.5932  -16.3549   25.0866 N.am    1  UNL1       -0.2572
     13 C          -6.5041  -15.3272   25.1745 C.3     1  UNL1        0.0983
     14 C          -6.2401  -14.6233   26.4725 C.3     1  UNL1        0.0224
     15 C          -7.0653  -14.9470   27.6826 C.3     1  UNL1        0.0113
     16 C          -8.1544  -15.9747   27.5947 C.3     1  UNL1        0.0857
     17 C          -8.4183  -16.6786   26.2967 C.2     1  UNL1        0.2294
     18 O          -9.5074  -17.7063   26.2088 O.2     1  UNL1       -0.2745
     19 N          -5.8901  -19.1808   21.0724 N.pl3   1  UNL1       -0.3267
     20 H          -6.0329  -19.5421   20.1678 H       1  UNL1        0.1472
     21 C          -4.5570  -19.3392   21.7415 C.3     1  UNL1        0.1137
     22 C          -3.2108  -20.1008   19.1709 C.3     1  UNL1        0.0307
     23 C          -2.7017  -18.9365   19.9679 C.ar    1  UNL1       -0.0245
     24 C          -1.5195  -18.1529   19.4796 C.ar    1  UNL1       -0.0045
     25 C          -1.0104  -16.9886   20.2765 C.ar    1  UNL1       -0.0007
     26 C          -1.6835  -16.6078   21.5618 C.ar    1  UNL1       -0.0045
     27 C          -2.8657  -17.3913   22.0501 C.ar    1  UNL1       -0.0245
     28 C          -3.5387  -17.0106   23.3354 C.3     1  UNL1        0.0307
     29 C          -3.3748  -18.5557   21.2532 C.ar    1  UNL1       -0.0105
@<TRIPOS>BOND
     1    22    23    1
     2    23    24   ar
     3    24    25   ar
     4    25    26   ar
     5    26    27   ar
     6    27    28    1
     7    27    29   ar
     8    29    21    1
     9    21    19    1
    10    19     1    1
    11     1     2   ar
    12     2     3   ar
    13     3    12    1
    14    12    13    1
    15    13    14    1
    16    14    15    1
    17    15    16    1
    18    16    17    1
    19    17    18    2
    20     3     4   ar
    21     4     5   ar
    22     5     6   ar
    23     6     7    1
    24     6     8   ar
    25     8     9    1
    26     8    10   ar
    27    10    11   ar
    28    29    23   ar
    29    11     1   ar
    30    17    12   am
    31    11     5   ar
    32    19    20    1
@<TRIPOS>MOLECULE
*****
 29 32 0 0 0
SMALL
GASTEIGER

@<TRIPOS>ATOM
      1 C          -8.6748  -19.3168   23.1360 C.ar    1  UNL1        0.0811
      2 C          -7.5177  -19.8579   22.3497 C.ar    1  UNL1        0.0338
      3 C          -6.2560  -19.0564   22.2243 C.ar    1  UNL1        0.0728
      4 C          -6.1515  -17.7139   22.8851 C.ar    1  UNL1        0.0961
      5 N          -7.3086  -17.1728   23.6713 N.ar    1  UNL1       -0.2907
      6 C          -7.4968  -15.8909   24.4271 C.ar    1  UNL1        0.0567
      7 C          -6.4847  -14.7926   24.5659 C.3     1  UNL1        0.0517
      8 C          -8.8748  -15.9000   25.0196 C.ar    1  UNL1        0.0730
      9 C          -9.4825  -14.8125   25.8551 C.3     1  UNL1        0.0534
     10 N          -9.5383  -17.1876   24.6301 N.ar    1  UNL1       -0.2299
     11 C          -8.5703  -17.9743   23.7967 C.ar    1  UNL1        0.1604
     12 N          -5.0988  -19.5975   21.4381 N.am    1  UNL1       -0.2572
     13 C          -3.6941  -19.2656   21.8463 C.3     1  UNL1        0.0983
     14 C          -2.5369  -19.8067   21.0602 C.3     1  UNL1        0.0224
     15 C          -2.7843  -20.6796   19.8657 C.3     1  UNL1        0.0113
     16 C          -4.1890  -21.0115   19.4574 C.3     1  UNL1        0.0857
     17 C          -5.3463  -20.4704   20.2436 C.2     1  UNL1        0.2294
     18 O          -6.7509  -20.8023   19.8354 O.2     1  UNL1       -0.2745
     19 N          -9.9366  -20.1183   23.2614 N.pl3   1  UNL1       -0.3267
     20 H         -10.0913  -20.6708   24.0615 H       1  UNL1        0.1472
     21 C         -10.9626  -20.0780   22.1679 C.3     1  UNL1        0.1137
     22 C          -9.9082  -19.3769   19.4482 C.3     1  UNL1        0.0307
     23 C         -10.8053  -18.4191   20.1746 C.ar    1  UNL1       -0.0245
     24 C         -11.1753  -17.1106   19.5412 C.ar    1  UNL1       -0.0045
     25 C         -12.0724  -16.1528   20.2675 C.ar    1  UNL1       -0.0007
     26 C         -12.5996  -16.5034   21.6274 C.ar    1  UNL1       -0.0045
     27 C         -12.2297  -17.8117   22.2608 C.ar    1  UNL1       -0.0245
     28 C         -12.7569  -18.1623   23.6207 C.3     1  UNL1        0.0307
     29 C         -11.3325  -18.7696   21.5345 C.ar    1  UNL1       -0.0105
@<TRIPOS>BOND
     1    22    23    1
     2    23    24   ar
     3    24    25   ar
     4    25    26   ar
     5    26    27   ar
     6    27    28    1
     7    27    29   ar
     8    29    21    1
     9    21    19    1
    10    19     1    1
    11     1     2   ar
    12     2     3   ar
    13     3    12    1
    14    12    13    1
    15    13    14    1
    16    14    15    1
    17    15    16    1
    18    16    17    1
    19    17    18    2
    20     3     4   ar
    21     4     5   ar
    22     5     6   ar
    23     6     7    1
    24     6     8   ar
    25     8     9    1
    26     8    10   ar
    27    10    11   ar
    28    29    23   ar
    29    11     1   ar
    30    17    12   am
    31    11     5   ar
    32    19    20    1
