@<TRIPOS>MOLECULE
*****
 24 26 0 0 0
SMALL
GASTEIGER

@<TRIPOS>ATOM
      1 S          -6.7093  -20.3721   20.5159 S.3     1  UNL1       -0.1088
      2 C          -5.4352  -19.6548   20.8509 C.ar    1  UNL1        0.0261
      3 C          -5.1520  -19.2512   22.2676 C.ar    1  UNL1        0.0077
      4 C          -3.8780  -18.5339   22.6026 C.ar    1  UNL1        0.0202
      5 C          -2.8872  -18.2201   21.5209 C.ar    1  UNL1        0.0893
      6 N          -1.5560  -17.5292   21.5488 N.ar    1  UNL1       -0.2245
      7 C          -1.0166  -17.5058   20.1494 C.ar    1  UNL1        0.1567
      8 N           0.2911  -16.9105   19.7183 N.pl3   1  UNL1       -0.3375
      9 S          -2.0143  -18.1822   19.2566 S.2     1  UNL1       -0.0520
     10 C          -3.1704  -18.6237   20.1043 C.ar    1  UNL1        0.0502
     11 C          -4.4444  -19.3410   19.7693 C.ar    1  UNL1        0.0142
     12 H           0.8812  -16.4858   20.3820 H       1  UNL1        0.1442
     13 H           0.5591  -16.9446   18.7716 H       1  UNL1        0.1442
     14 C          -7.7740  -19.6775   19.7197 C.3     1  UNL1        0.0884
     15 C         -11.3045  -17.8318   21.8123 C.ar    1  UNL1        0.0756
     16 C         -11.4275  -18.2781   20.3856 C.ar    1  UNL1        0.0061
     17 C         -10.2507  -18.8934   19.6880 C.ar    1  UNL1       -0.0032
     18 C          -8.9509  -19.0623   20.4173 C.ar    1  UNL1       -0.0110
     19 C          -8.8279  -18.6160   21.8440 C.ar    1  UNL1       -0.0032
     20 C         -10.0046  -18.0008   22.5416 C.ar    1  UNL1        0.0061
     21 C         -12.4814  -17.2166   22.5099 C.2     1  UNL1        0.3413
     22 O         -12.5365  -15.7325   22.7206 O.2     1  UNL1       -0.2449
     23 C         -13.9475  -18.1178   24.4561 C.3     1  UNL1        0.2560
     24 O         -13.6030  -18.0854   22.9966 O.3     1  UNL1       -0.4413
@<TRIPOS>BOND
     1    23    24    1
     2    24    21    1
     3    21    22    2
     4    21    15    1
     5    15    16   ar
     6    16    17   ar
     7    17    18   ar
     8    18    14    1
     9    14     1    1
    10     1     2    1
    11     2     3   ar
    12     3     4   ar
    13     4     5   ar
    14     5     6   ar
    15     6     7   ar
    16     7     8    1
    17     7     9   ar
    18     9    10   ar
    19    10    11   ar
    20    18    19   ar
    21    19    20   ar
    22    20    15   ar
    23    11     2   ar
    24    10     5   ar
    25     8    12    1
    26     8    13    1
@<TRIPOS>MOLECULE
*****
 24 26 0 0 0
SMALL
GASTEIGER

@<TRIPOS>ATOM
      1 S          -7.8300  -19.8906   20.3538 S.3     1  UNL1       -0.1088
      2 C          -9.1737  -19.3264   20.7090 C.ar    1  UNL1        0.0261
      3 C         -10.0228  -18.6881   19.6499 C.ar    1  UNL1        0.0077
      4 C         -11.3665  -18.1239   20.0050 C.ar    1  UNL1        0.0202
      5 C         -11.8610  -18.1979   21.4192 C.ar    1  UNL1        0.0893
      6 N         -13.1329  -17.7315   22.0635 N.ar    1  UNL1       -0.2245
      7 C         -13.0698  -18.0815   23.5207 C.ar    1  UNL1        0.1567
      8 N         -14.1311  -17.7985   24.5422 N.pl3   1  UNL1       -0.3375
      9 S         -11.7590  -18.7642   23.7770 S.2     1  UNL1       -0.0520
     10 C         -11.0119  -18.8362   22.4783 C.ar    1  UNL1        0.0502
     11 C          -9.6683  -19.4004   22.1231 C.ar    1  UNL1        0.0142
     12 H         -14.9621  -17.3428   24.2755 H       1  UNL1        0.1442
     13 H         -13.9967  -18.0684   25.4794 H       1  UNL1        0.1442
     14 C          -6.7790  -20.0478   21.4125 C.3     1  UNL1        0.0884
     15 C          -2.5909  -18.5837   20.6600 C.ar    1  UNL1        0.0756
     16 C          -3.0154  -18.9611   22.0483 C.ar    1  UNL1        0.0061
     17 C          -4.4114  -19.4491   22.2991 C.ar    1  UNL1       -0.0032
     18 C          -5.3829  -19.5597   21.1616 C.ar    1  UNL1       -0.0110
     19 C          -4.9584  -19.1823   19.7733 C.ar    1  UNL1       -0.0032
     20 C          -3.5624  -18.6943   19.5225 C.ar    1  UNL1        0.0061
     21 C          -1.1948  -18.0956   20.4092 C.2     1  UNL1        0.3413
     22 O          -0.1997  -18.9873   19.7276 O.2     1  UNL1       -0.2449
     23 C          -1.7504  -15.8675   21.6243 C.3     1  UNL1        0.2560
     24 O          -0.7939  -16.7159   20.8399 O.3     1  UNL1       -0.4413
@<TRIPOS>BOND
     1    23    24    1
     2    24    21    1
     3    21    22    2
     4    21    15    1
     5    15    16   ar
     6    16    17   ar
     7    17    18   ar
     8    18    14    1
     9    14     1    1
    10     1     2    1
    11     2     3   ar
    12     3     4   ar
    13     4     5   ar
    14     5     6   ar
    15     6     7   ar
    16     7     8    1
    17     7     9   ar
    18     9    10   ar
    19    10    11   ar
    20    18    19   ar
    21    19    20   ar
    22    20    15   ar
    23    11     2   ar
    24    10     5   ar
    25     8    12    1
    26     8    13    1
@<TRIPOS>MOLECULE
*****
 24 26 0 0 0
SMALL
GASTEIGER

@<TRIPOS>ATOM
      1 S          -7.0581  -20.4008   22.0705 S.3     1  UNL1       -0.1088
      2 C          -7.9280  -19.1905   21.9012 C.ar    1  UNL1        0.0261
      3 C          -7.6233  -17.9353   22.6637 C.ar    1  UNL1        0.0077
      4 C          -8.4932  -16.7251   22.4944 C.ar    1  UNL1        0.0202
      5 C          -9.6677  -16.7701   21.5625 C.ar    1  UNL1        0.0893
      6 N         -10.6962  -15.7424   21.1935 N.ar    1  UNL1       -0.2245
      7 C         -11.6364  -16.3625   20.2029 C.ar    1  UNL1        0.1567
      8 N         -12.8168  -15.6898   19.5671 N.pl3   1  UNL1       -0.3375
      9 S         -11.1891  -17.7734   19.9597 S.2     1  UNL1       -0.0520
     10 C          -9.9724  -18.0254   20.8000 C.ar    1  UNL1        0.0502
     11 C          -9.1025  -19.2355   20.9693 C.ar    1  UNL1        0.0142
     12 H         -13.0310  -14.7555   19.7918 H       1  UNL1        0.1442
     13 H         -13.3773  -16.1825   18.9250 H       1  UNL1        0.1442
     14 C          -6.1285  -20.8163   20.9691 C.3     1  UNL1        0.0884
     15 C          -2.1637  -18.7471   20.4706 C.ar    1  UNL1        0.0756
     16 C          -2.6359  -19.1439   21.8379 C.ar    1  UNL1        0.0061
     17 C          -3.9574  -19.8337   22.0041 C.ar    1  UNL1       -0.0032
     18 C          -4.8068  -20.1265   20.8029 C.ar    1  UNL1       -0.0110
     19 C          -4.3346  -19.7297   19.4356 C.ar    1  UNL1       -0.0032
     20 C          -3.0130  -19.0400   19.2694 C.ar    1  UNL1        0.0061
     21 C          -0.8420  -18.0574   20.3044 C.2     1  UNL1        0.3413
     22 O           0.3582  -18.8351   19.8520 O.2     1  UNL1       -0.2449
     23 C          -1.6964  -15.9227   21.5139 C.3     1  UNL1        0.2560
     24 O          -0.7206  -16.5900   20.5906 O.3     1  UNL1       -0.4413
@<TRIPOS>BOND
     1    23    24    1
     2    24    21    1
     3    21    22    2
     4    21    15    1
     5    15    16   ar
     6    16    17   ar
     7    17    18   ar
     8    18    14    1
     9    14     1    1
    10     1     2    1
    11     2     3   ar
    12     3     4   ar
    13     4     5   ar
    14     5     6   ar
    15     6     7   ar
    16     7     8    1
    17     7     9   ar
    18     9    10   ar
    19    10    11   ar
    20    18    19   ar
    21    19    20   ar
    22    20    15   ar
    23    11     2   ar
    24    10     5   ar
    25     8    12    1
    26     8    13    1
@<TRIPOS>MOLECULE
*****
 24 26 0 0 0
SMALL
GASTEIGER

@<TRIPOS>ATOM
      1 S          -6.4748  -20.2023   21.3349 S.3     1  UNL1       -0.1088
      2 C          -5.2322  -19.3724   21.4660 C.ar    1  UNL1        0.0261
      3 C          -5.0155  -18.5350   22.6915 C.ar    1  UNL1        0.0077
      4 C          -3.7729  -17.7051   22.8226 C.ar    1  UNL1        0.0202
      5 C          -2.7470  -17.7127   21.7283 C.ar    1  UNL1        0.0893
      6 N          -1.4344  -17.0023   21.5781 N.ar    1  UNL1       -0.2245
      7 C          -0.8399  -17.4007   20.2598 C.ar    1  UNL1        0.1567
      8 N           0.4698  -16.9259   19.7037 N.pl3   1  UNL1       -0.3375
      9 S          -1.7851  -18.3573   19.5953 S.2     1  UNL1       -0.0520
     10 C          -2.9637  -18.5501   20.5028 C.ar    1  UNL1        0.0502
     11 C          -4.2063  -19.3799   20.3717 C.ar    1  UNL1        0.0142
     12 H           1.0228  -16.2941   20.2177 H       1  UNL1        0.1442
     13 H           0.7764  -17.2461   18.8247 H       1  UNL1        0.1442
     14 C          -7.5534  -20.1070   22.3729 C.3     1  UNL1        0.0884
     15 C         -11.0207  -17.3039   21.7639 C.ar    1  UNL1        0.0756
     16 C         -11.0924  -18.7094   21.2449 C.ar    1  UNL1        0.0061
     17 C          -9.9367  -19.6438   21.4479 C.ar    1  UNL1       -0.0032
     18 C          -8.7092  -19.1726   22.1699 C.ar    1  UNL1       -0.0110
     19 C          -8.6375  -17.7671   22.6889 C.ar    1  UNL1       -0.0032
     20 C          -9.7932  -16.8327   22.4859 C.ar    1  UNL1        0.0061
     21 C         -12.1765  -16.3695   21.5609 C.2     1  UNL1        0.3413
     22 O         -12.8475  -15.7383   22.7447 O.2     1  UNL1       -0.2449
     23 C         -11.6838  -15.6683   19.1084 C.3     1  UNL1        0.2560
     24 O         -12.6612  -16.0664   20.1742 O.3     1  UNL1       -0.4413
@<TRIPOS>BOND
     1    23    24    1
     2    24    21    1
     3    21    22    2
     4    21    15    1
     5    15    16   ar
     6    16    17   ar
     7    17    18   ar
     8    18    14    1
     9    14     1    1
    10     1     2    1
    11     2     3   ar
    12     3     4   ar
    13     4     5   ar
    14     5     6   ar
    15     6     7   ar
    16     7     8    1
    17     7     9   ar
    18     9    10   ar
    19    10    11   ar
    20    18    19   ar
    21    19    20   ar
    22    20    15   ar
    23    11     2   ar
    24    10     5   ar
    25     8    12    1
    26     8    13    1
@<TRIPOS>MOLECULE
*****
 24 26 0 0 0
SMALL
GASTEIGER

@<TRIPOS>ATOM
      1 S          -5.2551  -16.0316   24.4599 S.3     1  UNL1       -0.1088
      2 C          -4.5448  -16.8280   23.4057 C.ar    1  UNL1        0.0261
      3 C          -5.0457  -18.1912   23.0307 C.ar    1  UNL1        0.0077
      4 C          -4.3354  -18.9875   21.9766 C.ar    1  UNL1        0.0202
      5 C          -3.1240  -18.4206   21.2974 C.ar    1  UNL1        0.0893
      6 N          -2.2237  -18.9679   20.2297 N.ar    1  UNL1       -0.2245
      7 C          -1.1662  -17.9429   19.9449 C.ar    1  UNL1        0.1567
      8 N          -0.0567  -18.0753   18.9441 N.pl3   1  UNL1       -0.3375
      9 S          -1.4131  -16.7621   20.8365 S.2     1  UNL1       -0.0520
     10 C          -2.6231  -17.0574   21.6724 C.ar    1  UNL1        0.0502
     11 C          -3.3334  -16.2611   22.7265 C.ar    1  UNL1        0.0142
     12 H           0.0227  -18.8937   18.4025 H       1  UNL1        0.1442
     13 H           0.5921  -17.3439   18.8288 H       1  UNL1        0.1442
     14 C          -6.4551  -15.2082   24.0964 C.3     1  UNL1        0.0884
     15 C         -10.3088  -17.2304   22.9522 C.ar    1  UNL1        0.0756
     16 C          -9.8461  -17.2506   24.3789 C.ar    1  UNL1        0.0061
     17 C          -8.5615  -16.5765   24.7603 C.ar    1  UNL1       -0.0032
     18 C          -7.7397  -15.8823   23.7150 C.ar    1  UNL1       -0.0110
     19 C          -8.2025  -15.8622   22.2884 C.ar    1  UNL1       -0.0032
     20 C          -9.4870  -16.5362   21.9069 C.ar    1  UNL1        0.0061
     21 C         -11.5934  -17.9045   22.5708 C.2     1  UNL1        0.3413
     22 O         -12.7350  -17.9481   23.5430 O.2     1  UNL1       -0.2449
     23 C         -10.9800  -19.7883   20.8901 C.3     1  UNL1        0.2560
     24 O         -11.7365  -18.5350   21.2174 O.3     1  UNL1       -0.4413
@<TRIPOS>BOND
     1    23    24    1
     2    24    21    1
     3    21    22    2
     4    21    15    1
     5    15    16   ar
     6    16    17   ar
     7    17    18   ar
     8    18    14    1
     9    14     1    1
    10     1     2    1
    11     2     3   ar
    12     3     4   ar
    13     4     5   ar
    14     5     6   ar
    15     6     7   ar
    16     7     8    1
    17     7     9   ar
    18     9    10   ar
    19    10    11   ar
    20    18    19   ar
    21    19    20   ar
    22    20    15   ar
    23    11     2   ar
    24    10     5   ar
    25     8    12    1
    26     8    13    1
@<TRIPOS>MOLECULE
*****
 24 26 0 0 0
SMALL
GASTEIGER

@<TRIPOS>ATOM
      1 S          -9.4735  -18.5722   20.9911 S.3     1  UNL1       -0.1088
      2 C          -9.3660  -18.2001   22.4403 C.ar    1  UNL1        0.0261
      3 C          -9.9935  -19.0722   23.4871 C.ar    1  UNL1        0.0077
      4 C          -9.8860  -18.7001   24.9362 C.ar    1  UNL1        0.0202
      5 C          -9.1509  -17.4560   25.3385 C.ar    1  UNL1        0.0893
      6 N          -8.8822  -16.8380   26.6787 N.ar    1  UNL1       -0.2245
      7 C          -8.0886  -15.5841   26.4602 C.ar    1  UNL1        0.1567
      8 N          -7.6021  -14.6510   27.5292 N.pl3   1  UNL1       -0.3375
      9 S          -7.8668  -15.4271   24.9850 S.2     1  UNL1       -0.0520
     10 C          -8.5234  -16.5840   24.2918 C.ar    1  UNL1        0.0502
     11 C          -8.6309  -16.9560   22.8427 C.ar    1  UNL1        0.0142
     12 H          -7.7992  -14.8404   28.4750 H       1  UNL1        0.1442
     13 H          -7.0858  -13.8491   27.2850 H       1  UNL1        0.1442
     14 C          -8.5321  -19.5817   20.4042 C.3     1  UNL1        0.0884
     15 C          -4.1149  -19.2718   21.2057 C.ar    1  UNL1        0.0756
     16 C          -5.0498  -19.6802   22.3053 C.ar    1  UNL1        0.0061
     17 C          -6.5222  -19.7835   22.0381 C.ar    1  UNL1       -0.0032
     18 C          -7.0596  -19.4784   20.6714 C.ar    1  UNL1       -0.0110
     19 C          -6.1247  -19.0701   19.5718 C.ar    1  UNL1       -0.0032
     20 C          -4.6523  -18.9667   19.8389 C.ar    1  UNL1        0.0061
     21 C          -2.6424  -19.1685   21.4729 C.2     1  UNL1        0.3413
     22 O          -1.7931  -20.4048   21.4805 O.2     1  UNL1       -0.2449
     23 C          -1.3192  -17.1001   20.6241 C.3     1  UNL1        0.2560
     24 O          -2.0195  -17.8289   21.7324 O.3     1  UNL1       -0.4413
@<TRIPOS>BOND
     1    23    24    1
     2    24    21    1
     3    21    22    2
     4    21    15    1
     5    15    16   ar
     6    16    17   ar
     7    17    18   ar
     8    18    14    1
     9    14     1    1
    10     1     2    1
    11     2     3   ar
    12     3     4   ar
    13     4     5   ar
    14     5     6   ar
    15     6     7   ar
    16     7     8    1
    17     7     9   ar
    18     9    10   ar
    19    10    11   ar
    20    18    19   ar
    21    19    20   ar
    22    20    15   ar
    23    11     2   ar
    24    10     5   ar
    25     8    12    1
    26     8    13    1
@<TRIPOS>MOLECULE
*****
 24 26 0 0 0
SMALL
GASTEIGER

@<TRIPOS>ATOM
      1 S          -9.1709  -19.3527   19.9717 S.3     1  UNL1       -0.1088
      2 C         -10.3218  -18.8614   20.7989 C.ar    1  UNL1        0.0261
      3 C         -11.2636  -17.8365   20.2399 C.ar    1  UNL1        0.0077
      4 C         -12.4144  -17.3452   21.0671 C.ar    1  UNL1        0.0202
      5 C         -12.6233  -17.8787   22.4533 C.ar    1  UNL1        0.0893
      6 N         -13.6610  -17.5852   23.4960 N.ar    1  UNL1       -0.2245
      7 C         -13.3605  -18.4286   24.6994 C.ar    1  UNL1        0.1567
      8 N         -14.1456  -18.4530   25.9774 N.pl3   1  UNL1       -0.3375
      9 S         -12.1371  -19.2435   24.4005 S.2     1  UNL1       -0.0520
     10 C         -11.6815  -18.9036   23.0124 C.ar    1  UNL1        0.0502
     11 C         -10.5307  -19.3949   22.1852 C.ar    1  UNL1        0.0142
     12 H         -14.9385  -17.8785   26.0790 H       1  UNL1        0.1442
     13 H         -13.8678  -19.0436   26.7145 H       1  UNL1        0.1442
     14 C          -7.8666  -19.6941   20.6291 C.3     1  UNL1        0.0884
     15 C          -5.9173  -16.7535   23.4224 C.ar    1  UNL1        0.0756
     16 C          -5.1592  -17.9610   22.9563 C.ar    1  UNL1        0.0061
     17 C          -5.8089  -18.9412   22.0252 C.ar    1  UNL1       -0.0032
     18 C          -7.2168  -18.7139   21.5602 C.ar    1  UNL1       -0.0110
     19 C          -7.9749  -17.5064   22.0263 C.ar    1  UNL1       -0.0032
     20 C          -7.3252  -16.5262   22.9574 C.ar    1  UNL1        0.0061
     21 C          -5.2675  -15.7732   24.3535 C.2     1  UNL1        0.3413
     22 O          -4.6478  -14.5200   23.8100 O.2     1  UNL1       -0.2449
     23 C          -6.1884  -15.3326   26.7425 C.3     1  UNL1        0.2560
     24 O          -5.2373  -16.0462   25.8281 O.3     1  UNL1       -0.4413
@<TRIPOS>BOND
     1    23    24    1
     2    24    21    1
     3    21    22    2
     4    21    15    1
     5    15    16   ar
     6    16    17   ar
     7    17    18   ar
     8    18    14    1
     9    14     1    1
    10     1     2    1
    11     2     3   ar
    12     3     4   ar
    13     4     5   ar
    14     5     6   ar
    15     6     7   ar
    16     7     8    1
    17     7     9   ar
    18     9    10   ar
    19    10    11   ar
    20    18    19   ar
    21    19    20   ar
    22    20    15   ar
    23    11     2   ar
    24    10     5   ar
    25     8    12    1
    26     8    13    1
@<TRIPOS>MOLECULE
*****
 24 26 0 0 0
SMALL
GASTEIGER

@<TRIPOS>ATOM
      1 S         -12.8252   -5.3576   19.4303 S.3     1  UNL1       -0.1088
      2 C         -12.2308   -4.1455   18.7763 C.ar    1  UNL1        0.0261
      3 C         -10.9135   -4.2465   18.0661 C.ar    1  UNL1        0.0077
      4 C         -10.3193   -3.0344   17.4121 C.ar    1  UNL1        0.0202
      5 C         -11.0424   -1.7214   17.4683 C.ar    1  UNL1        0.0893
      6 N         -10.7059   -0.3661   16.9205 N.ar    1  UNL1       -0.2245
      7 C         -11.8154    0.5725   17.2922 C.ar    1  UNL1        0.1567
      8 N         -11.8898    2.0304   16.9470 N.pl3   1  UNL1       -0.3375
      9 S         -12.8374   -0.2028   18.0696 S.2     1  UNL1       -0.0520
     10 C         -12.3597   -1.6205   18.1785 C.ar    1  UNL1        0.0502
     11 C         -12.9539   -2.8325   18.8325 C.ar    1  UNL1        0.0142
     12 H         -11.1654    2.4514   16.4300 H       1  UNL1        0.1442
     13 H         -12.6630    2.5662   17.2374 H       1  UNL1        0.1442
     14 C         -14.3089   -5.4508   19.6294 C.3     1  UNL1        0.0884
     15 C         -16.4669   -9.2890   18.7013 C.ar    1  UNL1        0.0756
     16 C         -15.0292   -9.1227   18.3071 C.ar    1  UNL1        0.0061
     17 C         -14.3099   -7.8433   18.6164 C.ar    1  UNL1       -0.0032
     18 C         -15.0283   -6.7303   19.3200 C.ar    1  UNL1       -0.0110
     19 C         -16.4659   -6.8966   19.7143 C.ar    1  UNL1       -0.0032
     20 C         -17.1852   -8.1760   19.4049 C.ar    1  UNL1        0.0061
     21 C         -17.1862  -10.5685   18.3919 C.2     1  UNL1        0.3413
     22 O         -16.7171  -11.8580   18.9978 O.2     1  UNL1       -0.2449
     23 C         -19.7584  -10.4520   18.0457 C.3     1  UNL1        0.2560
     24 O         -18.3746  -10.5584   17.4768 O.3     1  UNL1       -0.4413
@<TRIPOS>BOND
     1    23    24    1
     2    24    21    1
     3    21    22    2
     4    21    15    1
     5    15    16   ar
     6    16    17   ar
     7    17    18   ar
     8    18    14    1
     9    14     1    1
    10     1     2    1
    11     2     3   ar
    12     3     4   ar
    13     4     5   ar
    14     5     6   ar
    15     6     7   ar
    16     7     8    1
    17     7     9   ar
    18     9    10   ar
    19    10    11   ar
    20    18    19   ar
    21    19    20   ar
    22    20    15   ar
    23    11     2   ar
    24    10     5   ar
    25     8    12    1
    26     8    13    1
@<TRIPOS>MOLECULE
*****
 24 26 0 0 0
SMALL
GASTEIGER

@<TRIPOS>ATOM
      1 S         -13.6784   -4.7473   19.9647 S.3     1  UNL1       -0.1088
      2 C         -14.0342   -6.1166   19.4663 C.ar    1  UNL1        0.0261
      3 C         -13.0232   -6.9251   18.7085 C.ar    1  UNL1        0.0077
      4 C         -13.3790   -8.2944   18.2101 C.ar    1  UNL1        0.0202
      5 C         -14.7458   -8.8552   18.4695 C.ar    1  UNL1        0.0893
      6 N         -15.3793  -10.1649   18.1040 N.ar    1  UNL1       -0.2245
      7 C         -16.7818  -10.1658   18.6359 C.ar    1  UNL1        0.1567
      8 N         -17.7764  -11.2802   18.4979 N.pl3   1  UNL1       -0.3375
      9 S         -17.0151   -8.8567   19.3301 S.2     1  UNL1       -0.0520
     10 C         -15.7568   -8.0467   19.2272 C.ar    1  UNL1        0.0502
     11 C         -15.4010   -6.6774   19.7256 C.ar    1  UNL1        0.0142
     12 H         -17.5282  -12.1054   18.0219 H       1  UNL1        0.1442
     13 H         -18.6775  -11.1863   18.8833 H       1  UNL1        0.1442
     14 C         -12.4924   -4.0267   19.3955 C.3     1  UNL1        0.0884
     15 C         -12.9275    0.1980   17.9080 C.ar    1  UNL1        0.0756
     16 C         -14.1442   -0.5917   18.2900 C.ar    1  UNL1        0.0061
     17 C         -13.9992   -1.9999   18.7858 C.ar    1  UNL1       -0.0032
     18 C         -12.6374   -2.6184   18.8996 C.ar    1  UNL1       -0.0110
     19 C         -11.4207   -1.8287   18.5177 C.ar    1  UNL1       -0.0032
     20 C         -11.5657   -0.4205   18.0218 C.ar    1  UNL1        0.0061
     21 C         -13.0725    1.6063   17.4122 C.2     1  UNL1        0.3413
     22 O         -11.8640    2.4861   17.2886 O.2     1  UNL1       -0.2449
     23 C         -15.2370    2.8955   18.0467 C.3     1  UNL1        0.2560
     24 O         -14.4261    2.1347   17.0400 O.3     1  UNL1       -0.4413
@<TRIPOS>BOND
     1    23    24    1
     2    24    21    1
     3    21    22    2
     4    21    15    1
     5    15    16   ar
     6    16    17   ar
     7    17    18   ar
     8    18    14    1
     9    14     1    1
    10     1     2    1
    11     2     3   ar
    12     3     4   ar
    13     4     5   ar
    14     5     6   ar
    15     6     7   ar
    16     7     8    1
    17     7     9   ar
    18     9    10   ar
    19    10    11   ar
    20    18    19   ar
    21    19    20   ar
    22    20    15   ar
    23    11     2   ar
    24    10     5   ar
    25     8    12    1
    26     8    13    1
