@<TRIPOS>MOLECULE
*****
 22 24 0 0 0
SMALL
GASTEIGER

@<TRIPOS>ATOM
      1 C         -10.0727  -19.2812   21.0854 C.2     1  UNL1       -0.0420
      2 C          -9.1812  -19.2323   22.2908 C.2     1  UNL1       -0.0239
      3 C          -7.7586  -19.2731   21.8171 C.ar    1  UNL1       -0.0078
      4 C          -6.4536  -19.2523   22.5564 C.ar    1  UNL1        0.0002
      5 C          -5.1608  -19.3057   21.7976 C.ar    1  UNL1        0.0114
      6 C          -5.1731  -19.3799   20.2994 C.ar    1  UNL1        0.0574
      7 CL         -3.8802  -19.4333   19.5406 Cl      1  UNL1       -0.0823
      8 C          -6.4780  -19.4007   19.5602 C.ar    1  UNL1        0.0074
      9 C          -7.7708  -19.3473   20.3190 C.ar    1  UNL1       -0.0176
     10 C          -9.2010  -19.3523   19.8668 C.3     1  UNL1        0.0480
     11 C         -11.5726  -19.2624   21.0967 C.3     1  UNL1        0.0394
     12 C         -12.3060  -17.9543   21.1225 C.3     1  UNL1        0.0765
     13 C         -13.1907  -18.0072   23.5648 C.3     1  UNL1        0.0897
     14 N         -12.5567  -17.2606   22.4287 N.3     1  UNL1       -0.2700
     15 C         -12.1734  -15.8204   22.5987 C.3     1  UNL1        0.0897
     16 C          -9.6331  -19.1559   23.7191 C.3     1  UNL1        0.0733
     17 C          -9.2472  -17.9794   24.5659 C.ar    1  UNL1        0.0849
     18 C          -8.9274  -16.6636   23.9207 C.ar    1  UNL1        0.0185
     19 C          -8.5415  -15.4871   24.7674 C.ar    1  UNL1        0.0238
     20 C          -8.4754  -15.6265   26.2595 C.ar    1  UNL1        0.1222
     21 N          -8.7951  -16.9424   26.9047 N.ar    1  UNL1       -0.1467
     22 N          -9.1810  -18.1188   26.0580 N.ar    1  UNL1       -0.1520
@<TRIPOS>BOND
     1    13    14    1
     2    14    15    1
     3    14    12    1
     4    12    11    1
     5    11     1    1
     6     1     2    2
     7     2    16    1
     8    16    17    1
     9    17    18   ar
    10    18    19   ar
    11    19    20   ar
    12    20    21   ar
    13    21    22   ar
    14     2     3    1
    15     3     4   ar
    16     4     5   ar
    17     5     6   ar
    18     6     7    1
    19     6     8   ar
    20     8     9   ar
    21     9    10    1
    22    10     1    1
    23    22    17   ar
    24     9     3   ar
@<TRIPOS>MOLECULE
*****
 22 24 0 0 0
SMALL
GASTEIGER

@<TRIPOS>ATOM
      1 C          -9.8076  -18.9820   23.1548 C.2     1  UNL1       -0.0420
      2 C          -8.6674  -18.1465   22.6530 C.2     1  UNL1       -0.0239
      3 C          -8.2579  -17.2126   23.7530 C.ar    1  UNL1       -0.0078
      4 C          -7.1918  -16.1603   23.8314 C.ar    1  UNL1        0.0002
      5 C          -7.0129  -15.3663   25.0914 C.ar    1  UNL1        0.0114
      6 C          -7.9001  -15.6246   26.2730 C.ar    1  UNL1        0.0574
      7 CL         -7.7211  -14.8305   27.5330 Cl      1  UNL1       -0.0823
      8 C          -8.9662  -16.6768   26.1946 C.ar    1  UNL1        0.0074
      9 C          -9.1451  -17.4708   24.9346 C.ar    1  UNL1       -0.0176
     10 C         -10.1029  -18.5644   24.5649 C.3     1  UNL1        0.0480
     11 C         -10.5265  -20.0480   22.3821 C.3     1  UNL1        0.0394
     12 C         -11.3106  -19.6857   21.1558 C.3     1  UNL1        0.0765
     13 C         -12.8949  -17.7741   21.9215 C.3     1  UNL1        0.0897
     14 N         -11.8404  -18.2923   20.9889 N.3     1  UNL1       -0.2700
     15 C         -11.3158  -17.4172   19.8894 C.3     1  UNL1        0.0897
     16 C          -8.0457  -18.2303   21.2905 C.3     1  UNL1        0.0733
     17 C          -6.6106  -18.6421   21.1449 C.ar    1  UNL1        0.0849
     18 C          -5.8778  -19.2331   22.3126 C.ar    1  UNL1        0.0185
     19 C          -4.4428  -19.6449   22.1671 C.ar    1  UNL1        0.0238
     20 C          -3.7407  -19.4657   20.8537 C.ar    1  UNL1        0.1222
     21 N          -4.4735  -18.8747   19.6860 N.ar    1  UNL1       -0.1467
     22 N          -5.9085  -18.4629   19.8315 N.ar    1  UNL1       -0.1520
@<TRIPOS>BOND
     1    13    14    1
     2    14    15    1
     3    14    12    1
     4    12    11    1
     5    11     1    1
     6     1     2    2
     7     2    16    1
     8    16    17    1
     9    17    18   ar
    10    18    19   ar
    11    19    20   ar
    12    20    21   ar
    13    21    22   ar
    14     2     3    1
    15     3     4   ar
    16     4     5   ar
    17     5     6   ar
    18     6     7    1
    19     6     8   ar
    20     8     9   ar
    21     9    10    1
    22    10     1    1
    23    22    17   ar
    24     9     3   ar
@<TRIPOS>MOLECULE
*****
 22 24 0 0 0
SMALL
GASTEIGER

@<TRIPOS>ATOM
      1 C          -5.4665  -18.9161   22.2567 C.2     1  UNL1       -0.0420
      2 C          -5.6122  -19.5120   20.8879 C.2     1  UNL1       -0.0239
      3 C          -7.0515  -19.3945   20.4820 C.ar    1  UNL1       -0.0078
      4 C          -7.7808  -19.8099   19.2388 C.ar    1  UNL1        0.0002
      5 C          -9.2539  -19.5567   19.1136 C.ar    1  UNL1        0.0114
      6 C          -9.9977  -18.8881   20.2316 C.ar    1  UNL1        0.0574
      7 CL        -11.4709  -18.6350   20.1063 Cl      1  UNL1       -0.0823
      8 C          -9.2684  -18.4727   21.4747 C.ar    1  UNL1        0.0074
      9 C          -7.7952  -18.7259   21.5999 C.ar    1  UNL1       -0.0176
     10 C          -6.8156  -18.4303   22.6967 C.3     1  UNL1        0.0480
     11 C          -4.1948  -18.8224   23.0467 C.3     1  UNL1        0.0394
     12 C          -3.8582  -17.5574   23.7790 C.3     1  UNL1        0.0765
     13 C          -4.7303  -15.1662   23.2576 C.3     1  UNL1        0.0897
     14 N          -3.7359  -16.2653   23.0269 N.3     1  UNL1       -0.2700
     15 C          -2.6193  -16.0723   22.0442 C.3     1  UNL1        0.0897
     16 C          -4.5119  -20.1190   20.0688 C.3     1  UNL1        0.0733
     17 C          -3.2426  -19.3547   19.8340 C.ar    1  UNL1        0.0849
     18 C          -3.2168  -18.2306   18.8412 C.ar    1  UNL1        0.0185
     19 C          -1.9477  -17.4663   18.6063 C.ar    1  UNL1        0.0238
     20 C          -0.7044  -17.8262   19.3644 C.ar    1  UNL1        0.1222
     21 N          -0.7302  -18.9503   20.3572 N.ar    1  UNL1       -0.1467
     22 N          -1.9993  -19.7146   20.5920 N.ar    1  UNL1       -0.1520
@<TRIPOS>BOND
     1    13    14    1
     2    14    15    1
     3    14    12    1
     4    12    11    1
     5    11     1    1
     6     1     2    2
     7     2    16    1
     8    16    17    1
     9    17    18   ar
    10    18    19   ar
    11    19    20   ar
    12    20    21   ar
    13    21    22   ar
    14     2     3    1
    15     3     4   ar
    16     4     5   ar
    17     5     6   ar
    18     6     7    1
    19     6     8   ar
    20     8     9   ar
    21     9    10    1
    22    10     1    1
    23    22    17   ar
    24     9     3   ar
@<TRIPOS>MOLECULE
*****
 22 24 0 0 0
SMALL
GASTEIGER

@<TRIPOS>ATOM
      1 C          -7.5205  -17.4444   23.2908 C.2     1  UNL1       -0.0420
      2 C          -7.8084  -18.6005   22.3796 C.2     1  UNL1       -0.0239
      3 C          -6.5015  -19.1048   21.8433 C.ar    1  UNL1       -0.0078
      4 C          -6.1676  -20.2239   20.9020 C.ar    1  UNL1        0.0002
      5 C          -4.7380  -20.4984   20.5404 C.ar    1  UNL1        0.0114
      6 C          -3.6422  -19.6539   21.1202 C.ar    1  UNL1        0.0574
      7 CL         -2.2126  -19.9285   20.7586 Cl      1  UNL1       -0.0823
      8 C          -3.9761  -18.5348   22.0616 C.ar    1  UNL1        0.0074
      9 C          -5.4057  -18.2603   22.4231 C.ar    1  UNL1       -0.0176
     10 C          -6.0355  -17.2341   23.3177 C.3     1  UNL1        0.0480
     11 C          -8.5387  -16.6397   24.0431 C.3     1  UNL1        0.0394
     12 C          -8.1090  -15.4463   24.8437 C.3     1  UNL1        0.0765
     13 C          -8.2638  -16.2036   27.3241 C.3     1  UNL1        0.0897
     14 N          -7.4680  -15.6352   26.1866 N.3     1  UNL1       -0.2700
     15 C          -6.0314  -15.2559   26.3921 C.3     1  UNL1        0.0897
     16 C          -9.1652  -19.1551   22.0606 C.3     1  UNL1        0.0733
     17 C         -10.2554  -18.2419   21.5834 C.ar    1  UNL1        0.0849
     18 C         -11.6334  -18.3507   22.1660 C.ar    1  UNL1        0.0185
     19 C         -12.7237  -17.4377   21.6889 C.ar    1  UNL1        0.0238
     20 C         -12.4359  -16.4158   20.6292 C.ar    1  UNL1        0.1222
     21 N         -11.0579  -16.3070   20.0466 N.ar    1  UNL1       -0.1467
     22 N          -9.9677  -17.2201   20.5237 N.ar    1  UNL1       -0.1520
@<TRIPOS>BOND
     1    13    14    1
     2    14    15    1
     3    14    12    1
     4    12    11    1
     5    11     1    1
     6     1     2    2
     7     2    16    1
     8    16    17    1
     9    17    18   ar
    10    18    19   ar
    11    19    20   ar
    12    20    21   ar
    13    21    22   ar
    14     2     3    1
    15     3     4   ar
    16     4     5   ar
    17     5     6   ar
    18     6     7    1
    19     6     8   ar
    20     8     9   ar
    21     9    10    1
    22    10     1    1
    23    22    17   ar
    24     9     3   ar
@<TRIPOS>MOLECULE
*****
 22 24 0 0 0
SMALL
GASTEIGER

@<TRIPOS>ATOM
      1 C          -5.7562  -17.1683   23.3541 C.2     1  UNL1       -0.0420
      2 C          -5.0062  -18.2671   22.6610 C.2     1  UNL1       -0.0239
      3 C          -5.9320  -18.9058   21.6686 C.ar    1  UNL1       -0.0078
      4 C          -5.7419  -20.0375   20.7026 C.ar    1  UNL1        0.0002
      5 C          -6.8739  -20.4652   19.8163 C.ar    1  UNL1        0.0114
      6 C          -8.1961  -19.7612   19.8960 C.ar    1  UNL1        0.0574
      7 CL         -9.3281  -20.1890   19.0097 Cl      1  UNL1       -0.0823
      8 C          -8.3862  -18.6296   20.8620 C.ar    1  UNL1        0.0074
      9 C          -7.2541  -18.2018   21.7483 C.ar    1  UNL1       -0.0176
     10 C          -7.1455  -17.1280   22.7900 C.3     1  UNL1        0.0480
     11 C          -5.2124  -16.2680   24.4235 C.3     1  UNL1        0.0394
     12 C          -6.0676  -15.1729   24.9885 C.3     1  UNL1        0.0765
     13 C          -8.5860  -15.4445   25.5668 C.3     1  UNL1        0.0897
     14 N          -7.1450  -15.4986   25.9801 N.3     1  UNL1       -0.2700
     15 C          -6.7814  -15.8784   27.3849 C.3     1  UNL1        0.0897
     16 C          -3.5807  -18.6584   22.9157 C.3     1  UNL1        0.0733
     17 C          -2.5188  -18.3180   21.9123 C.ar    1  UNL1        0.0849
     18 C          -2.1637  -16.8838   21.6535 C.ar    1  UNL1        0.0185
     19 C          -1.1019  -16.5433   20.6502 C.ar    1  UNL1        0.0238
     20 C          -0.3951  -17.6371   19.9058 C.ar    1  UNL1        0.1222
     21 N          -0.7502  -19.0713   20.1647 N.ar    1  UNL1       -0.1467
     22 N          -1.8121  -19.4118   21.1679 N.ar    1  UNL1       -0.1520
@<TRIPOS>BOND
     1    13    14    1
     2    14    15    1
     3    14    12    1
     4    12    11    1
     5    11     1    1
     6     1     2    2
     7     2    16    1
     8    16    17    1
     9    17    18   ar
    10    18    19   ar
    11    19    20   ar
    12    20    21   ar
    13    21    22   ar
    14     2     3    1
    15     3     4   ar
    16     4     5   ar
    17     5     6   ar
    18     6     7    1
    19     6     8   ar
    20     8     9   ar
    21     9    10    1
    22    10     1    1
    23    22    17   ar
    24     9     3   ar
@<TRIPOS>MOLECULE
*****
 22 24 0 0 0
SMALL
GASTEIGER

@<TRIPOS>ATOM
      1 C          -7.5546  -18.3513   22.1891 C.2     1  UNL1       -0.0420
      2 C          -8.1307  -17.0192   22.5679 C.2     1  UNL1       -0.0239
      3 C          -9.6239  -17.1123   22.4603 C.ar    1  UNL1       -0.0078
      4 C         -10.7126  -16.1113   22.7103 C.ar    1  UNL1        0.0002
      5 C         -12.1481  -16.5000   22.5149 C.ar    1  UNL1        0.0114
      6 C         -12.4949  -17.8897   22.0695 C.ar    1  UNL1        0.0574
      7 CL        -13.9305  -18.2784   21.8742 Cl      1  UNL1       -0.0823
      8 C         -11.4062  -18.8908   21.8196 C.ar    1  UNL1        0.0074
      9 C          -9.9707  -18.5021   22.0149 C.ar    1  UNL1       -0.0176
     10 C          -8.6918  -19.2678   21.8473 C.3     1  UNL1        0.0480
     11 C          -6.0972  -18.7049   22.1575 C.3     1  UNL1        0.0394
     12 C          -5.4939  -19.2893   20.9148 C.3     1  UNL1        0.0765
     13 C          -3.4909  -18.6457   19.3904 C.3     1  UNL1        0.0897
     14 N          -4.0147  -19.1961   20.6837 N.3     1  UNL1       -0.2700
     15 C          -3.0595  -19.6532   21.7460 C.3     1  UNL1        0.0897
     16 C          -7.3505  -15.8067   22.9817 C.3     1  UNL1        0.0733
     17 C          -7.0731  -15.5529   24.4339 C.ar    1  UNL1        0.0849
     18 C          -8.1248  -15.8499   25.4615 C.ar    1  UNL1        0.0185
     19 C          -7.8474  -15.5962   26.9136 C.ar    1  UNL1        0.0238
     20 C          -6.5184  -15.0455   27.3382 C.ar    1  UNL1        0.1222
     21 N          -5.4667  -14.7485   26.3106 N.ar    1  UNL1       -0.1467
     22 N          -5.7440  -15.0022   24.8585 N.ar    1  UNL1       -0.1520
@<TRIPOS>BOND
     1    13    14    1
     2    14    15    1
     3    14    12    1
     4    12    11    1
     5    11     1    1
     6     1     2    2
     7     2    16    1
     8    16    17    1
     9    17    18   ar
    10    18    19   ar
    11    19    20   ar
    12    20    21   ar
    13    21    22   ar
    14     2     3    1
    15     3     4   ar
    16     4     5   ar
    17     5     6   ar
    18     6     7    1
    19     6     8   ar
    20     8     9   ar
    21     9    10    1
    22    10     1    1
    23    22    17   ar
    24     9     3   ar
@<TRIPOS>MOLECULE
*****
 22 24 0 0 0
SMALL
GASTEIGER

@<TRIPOS>ATOM
      1 C          -8.6825  -18.2149   21.6217 C.2     1  UNL1       -0.0420
      2 C          -7.8529  -17.3199   22.4939 C.2     1  UNL1       -0.0239
      3 C          -6.4381  -17.8165   22.4551 C.ar    1  UNL1       -0.0078
      4 C          -5.1848  -17.3296   23.1201 C.ar    1  UNL1        0.0002
      5 C          -3.8867  -18.0445   22.8888 C.ar    1  UNL1        0.0114
      6 C          -3.8417  -19.2465   21.9925 C.ar    1  UNL1        0.0574
      7 CL         -2.5435  -19.9615   21.7613 Cl      1  UNL1       -0.0823
      8 C          -5.0950  -19.7335   21.3276 C.ar    1  UNL1        0.0074
      9 C          -6.3931  -19.0185   21.5589 C.ar    1  UNL1       -0.0176
     10 C          -7.7802  -19.2647   21.0438 C.3     1  UNL1        0.0480
     11 C         -10.1555  -18.0833   21.3713 C.3     1  UNL1        0.0394
     12 C         -11.1348  -18.4489   22.4470 C.3     1  UNL1        0.0765
     13 C         -13.3726  -17.9389   23.6645 C.3     1  UNL1        0.0897
     14 N         -12.1971  -17.4727   22.8576 N.3     1  UNL1       -0.2700
     15 C         -12.0840  -16.0305   22.4613 C.3     1  UNL1        0.0897
     16 C          -8.3508  -16.1361   23.2690 C.3     1  UNL1        0.0733
     17 C          -7.7878  -15.8381   24.6271 C.ar    1  UNL1        0.0849
     18 C          -8.4552  -16.3878   25.8528 C.ar    1  UNL1        0.0185
     19 C          -7.8923  -16.0899   27.2108 C.ar    1  UNL1        0.0238
     20 C          -6.6619  -15.2421   27.3431 C.ar    1  UNL1        0.1222
     21 N          -5.9946  -14.6924   26.1174 N.ar    1  UNL1       -0.1467
     22 N          -6.5575  -14.9903   24.7594 N.ar    1  UNL1       -0.1520
@<TRIPOS>BOND
     1    13    14    1
     2    14    15    1
     3    14    12    1
     4    12    11    1
     5    11     1    1
     6     1     2    2
     7     2    16    1
     8    16    17    1
     9    17    18   ar
    10    18    19   ar
    11    19    20   ar
    12    20    21   ar
    13    21    22   ar
    14     2     3    1
    15     3     4   ar
    16     4     5   ar
    17     5     6   ar
    18     6     7    1
    19     6     8   ar
    20     8     9   ar
    21     9    10    1
    22    10     1    1
    23    22    17   ar
    24     9     3   ar
@<TRIPOS>MOLECULE
*****
 22 24 0 0 0
SMALL
GASTEIGER

@<TRIPOS>ATOM
      1 C          -6.9960  -17.0993   22.9794 C.2     1  UNL1       -0.0420
      2 C          -7.3045  -18.4278   22.3550 C.2     1  UNL1       -0.0239
      3 C          -8.7727  -18.4671   22.0502 C.ar    1  UNL1       -0.0078
      4 C          -9.6416  -19.5220   21.4321 C.ar    1  UNL1        0.0002
      5 C         -11.1094  -19.2725   21.2499 C.ar    1  UNL1        0.0114
      6 C         -11.7083  -17.9682   21.6859 C.ar    1  UNL1        0.0574
      7 CL        -13.1762  -17.7188   21.5037 Cl      1  UNL1       -0.0823
      8 C         -10.8394  -16.9134   22.3041 C.ar    1  UNL1        0.0074
      9 C          -9.3716  -17.1628   22.4862 C.ar    1  UNL1       -0.0176
     10 C          -8.2735  -16.3175   23.0605 C.3     1  UNL1        0.0480
     11 C          -5.6468  -16.6343   23.4415 C.3     1  UNL1        0.0394
     12 C          -5.5390  -15.5204   24.4402 C.3     1  UNL1        0.0765
     13 C          -4.4033  -16.7657   26.4175 C.3     1  UNL1        0.0897
     14 N          -5.4596  -15.8318   25.9054 N.3     1  UNL1       -0.2700
     15 C          -6.4366  -15.2095   26.8584 C.3     1  UNL1        0.0897
     16 C          -6.3180  -19.5246   22.0831 C.3     1  UNL1        0.0733
     17 C          -5.0400  -19.2213   21.3585 C.ar    1  UNL1        0.0849
     18 C          -3.7210  -19.5256   22.0048 C.ar    1  UNL1        0.0185
     19 C          -2.4431  -19.2224   21.2803 C.ar    1  UNL1        0.0238
     20 C          -2.4843  -18.6148   19.9095 C.ar    1  UNL1        0.1222
     21 N          -3.8032  -18.3105   19.2632 N.ar    1  UNL1       -0.1467
     22 N          -5.0811  -18.6137   19.9877 N.ar    1  UNL1       -0.1520
@<TRIPOS>BOND
     1    13    14    1
     2    14    15    1
     3    14    12    1
     4    12    11    1
     5    11     1    1
     6     1     2    2
     7     2    16    1
     8    16    17    1
     9    17    18   ar
    10    18    19   ar
    11    19    20   ar
    12    20    21   ar
    13    21    22   ar
    14     2     3    1
    15     3     4   ar
    16     4     5   ar
    17     5     6   ar
    18     6     7    1
    19     6     8   ar
    20     8     9   ar
    21     9    10    1
    22    10     1    1
    23    22    17   ar
    24     9     3   ar
@<TRIPOS>MOLECULE
*****
 22 24 0 0 0
SMALL
GASTEIGER

@<TRIPOS>ATOM
      1 C          -5.0883  -18.1230   22.8108 C.2     1  UNL1       -0.0420
      2 C          -6.1497  -17.0752   22.9709 C.2     1  UNL1       -0.0239
      3 C          -7.3889  -17.5612   22.2794 C.ar    1  UNL1       -0.0078
      4 C          -8.7482  -16.9503   22.1088 C.ar    1  UNL1        0.0002
      5 C          -9.8120  -17.6876   21.3507 C.ar    1  UNL1        0.0114
      6 C          -9.5165  -19.0357   20.7632 C.ar    1  UNL1        0.0574
      7 CL        -10.5803  -19.7730   20.0050 Cl      1  UNL1       -0.0823
      8 C          -8.1572  -19.6466   20.9338 C.ar    1  UNL1        0.0074
      9 C          -7.0934  -18.9094   21.6919 C.ar    1  UNL1       -0.0176
     10 C          -5.6716  -19.2565   22.0203 C.3     1  UNL1        0.0480
     11 C          -3.6894  -18.0500   23.3470 C.3     1  UNL1        0.0394
     12 C          -2.5851  -17.5059   22.4900 C.3     1  UNL1        0.0765
     13 C          -2.1731  -19.6468   21.0768 C.3     1  UNL1        0.0897
     14 N          -2.2687  -18.1530   21.1743 N.3     1  UNL1       -0.2700
     15 C          -2.0477  -17.3063   19.9560 C.3     1  UNL1        0.0897
     16 C          -5.9985  -15.7705   23.6954 C.3     1  UNL1        0.0733
     17 C          -6.6765  -15.5637   25.0175 C.ar    1  UNL1        0.0849
     18 C          -8.1732  -15.4963   25.0903 C.ar    1  UNL1        0.0185
     19 C          -8.8512  -15.2895   26.4122 C.ar    1  UNL1        0.0238
     20 C          -8.0325  -15.1501   27.6613 C.ar    1  UNL1        0.1222
     21 N          -6.5358  -15.2176   27.5884 N.ar    1  UNL1       -0.1467
     22 N          -5.8577  -15.4244   26.2665 N.ar    1  UNL1       -0.1520
@<TRIPOS>BOND
     1    13    14    1
     2    14    15    1
     3    14    12    1
     4    12    11    1
     5    11     1    1
     6     1     2    2
     7     2    16    1
     8    16    17    1
     9    17    18   ar
    10    18    19   ar
    11    19    20   ar
    12    20    21   ar
    13    21    22   ar
    14     2     3    1
    15     3     4   ar
    16     4     5   ar
    17     5     6   ar
    18     6     7    1
    19     6     8   ar
    20     8     9   ar
    21     9    10    1
    22    10     1    1
    23    22    17   ar
    24     9     3   ar
