@<TRIPOS>MOLECULE
*****
 27 29 0 0 0
SMALL
GASTEIGER

@<TRIPOS>ATOM
      1 C          -9.3716  -18.0855   24.0313 C.3     1  UNL1        0.0975
      2 C          -8.7492  -17.1775   25.0503 C.ar    1  UNL1       -0.0082
      3 C          -9.1405  -17.2904   26.4939 C.ar    1  UNL1       -0.0030
      4 C          -8.5180  -16.3825   27.5128 C.ar    1  UNL1       -0.0003
      5 C          -7.5043  -15.3617   27.0881 C.ar    1  UNL1       -0.0003
      6 C          -7.1130  -15.2489   25.6445 C.ar    1  UNL1       -0.0045
      7 C          -7.7355  -16.1568   24.6256 C.ar    1  UNL1       -0.0229
      8 C          -7.3442  -16.0439   23.1818 C.3     1  UNL1        0.0476
      9 C          -7.9666  -16.9518   22.1629 C.3     1  UNL1        0.0983
     10 N          -8.9804  -17.9726   22.5877 N.am    1  UNL1       -0.2760
     11 C          -9.6028  -18.8806   21.5687 C.2     1  UNL1        0.2420
     12 O         -10.6165  -19.9013   21.9934 O.2     1  UNL1       -0.2734
     13 C          -9.9449  -20.4909   24.8282 C.3     1  UNL1        0.0021
     14 C         -10.3854  -19.1062   24.4560 C.3     1  UNL1        0.0224
     15 C         -11.8397  -18.7423   24.5085 C.3     1  UNL1        0.0021
     16 C          -9.2115  -18.7677   20.1250 C.3     1  UNL1        0.1552
     17 N          -7.8002  -19.0549   19.7059 N.3     1  UNL1       -0.2879
     18 H          -7.2786  -18.1848   19.8124 H       1  UNL1        0.1238
     19 C          -7.0118  -20.1211   20.4071 C.3     1  UNL1        0.0961
     20 C          -5.7740  -19.7576   21.1725 C.3     1  UNL1        0.1027
     21 O          -6.6259  -20.2834   22.2895 O.3     1  UNL1       -0.3854
     22 C          -5.3520  -19.3580   19.7897 C.3     1  UNL1        0.0283
     23 C          -3.9880  -18.7776   19.5601 C.3     1  UNL1        0.0024
     24 C          -3.0461  -18.5966   20.7134 C.3     1  UNL1        0.0002
     25 C          -3.4681  -18.9962   22.0962 C.3     1  UNL1        0.0024
     26 C          -4.8321  -19.5766   22.3258 C.3     1  UNL1        0.0283
     27 H          -7.4843  -20.5652   21.9364 H       1  UNL1        0.2103
@<TRIPOS>BOND
     1    13    14    1
     2    14    15    1
     3    14     1    1
     4     1     2    1
     5     2     3   ar
     6     3     4   ar
     7     4     5   ar
     8     5     6   ar
     9     6     7   ar
    10     7     8    1
    11     8     9    1
    12     9    10    1
    13    10    11   am
    14    11    12    2
    15    11    16    1
    16    16    17    1
    17    17    19    1
    18    19    20    1
    19    20    21    1
    20    20    22    1
    21    22    23    1
    22    23    24    1
    23    24    25    1
    24    25    26    1
    25    10     1    1
    26    26    20    1
    27     7     2   ar
    28    17    18    1
    29    21    27    1
@<TRIPOS>MOLECULE
*****
 27 29 0 0 0
SMALL
GASTEIGER

@<TRIPOS>ATOM
      1 C         -10.5425  -18.5049   21.9881 C.3     1  UNL1        0.0975
      2 C         -11.6787  -18.4500   22.9660 C.ar    1  UNL1       -0.0082
      3 C         -12.9880  -17.8405   22.5610 C.ar    1  UNL1       -0.0030
      4 C         -14.1241  -17.7856   23.5389 C.ar    1  UNL1       -0.0003
      5 C         -13.9508  -18.3402   24.9218 C.ar    1  UNL1       -0.0003
      6 C         -12.6414  -18.9496   25.3268 C.ar    1  UNL1       -0.0045
      7 C         -11.5054  -19.0045   24.3489 C.ar    1  UNL1       -0.0229
      8 C         -10.1959  -19.6140   24.7539 C.3     1  UNL1        0.0476
      9 C          -9.0599  -19.6689   23.7760 C.3     1  UNL1        0.0983
     10 N          -9.2332  -19.1143   22.3931 N.am    1  UNL1       -0.2760
     11 C          -8.0970  -19.1693   21.4152 C.2     1  UNL1        0.2420
     12 O          -8.2703  -18.6147   20.0323 O.2     1  UNL1       -0.2734
     13 C         -11.0277  -18.8699   19.4620 C.3     1  UNL1        0.0021
     14 C         -10.7158  -17.9503   20.6052 C.3     1  UNL1        0.0224
     15 C         -10.5772  -16.4760   20.3656 C.3     1  UNL1        0.0021
     16 C          -6.7876  -19.7787   21.8203 C.3     1  UNL1        0.1552
     17 N          -5.6769  -18.9045   22.3222 N.3     1  UNL1       -0.2879
     18 H          -5.8399  -18.7647   23.3193 H       1  UNL1        0.1238
     19 C          -4.2506  -19.3449   22.1742 C.3     1  UNL1        0.0961
     20 C          -3.1962  -18.3528   21.7820 C.3     1  UNL1        0.1027
     21 O          -3.3598  -18.0000   23.2307 O.3     1  UNL1       -0.3854
     22 C          -3.3988  -19.0502   20.4696 C.3     1  UNL1        0.0283
     23 C          -2.6038  -18.6330   19.2680 C.3     1  UNL1        0.0024
     24 C          -1.6061  -17.5183   19.3788 C.3     1  UNL1        0.0002
     25 C          -1.4035  -16.8209   20.6912 C.3     1  UNL1        0.0024
     26 C          -2.1985  -17.2382   21.8929 C.3     1  UNL1        0.0283
     27 H          -4.0302  -18.5760   23.6301 H       1  UNL1        0.2103
@<TRIPOS>BOND
     1    13    14    1
     2    14    15    1
     3    14     1    1
     4     1     2    1
     5     2     3   ar
     6     3     4   ar
     7     4     5   ar
     8     5     6   ar
     9     6     7   ar
    10     7     8    1
    11     8     9    1
    12     9    10    1
    13    10    11   am
    14    11    12    2
    15    11    16    1
    16    16    17    1
    17    17    19    1
    18    19    20    1
    19    20    21    1
    20    20    22    1
    21    22    23    1
    22    23    24    1
    23    24    25    1
    24    25    26    1
    25    10     1    1
    26    26    20    1
    27     7     2   ar
    28    17    18    1
    29    21    27    1
@<TRIPOS>MOLECULE
*****
 27 29 0 0 0
SMALL
GASTEIGER

@<TRIPOS>ATOM
      1 C          -8.7274  -17.2251   22.5720 C.3     1  UNL1        0.0975
      2 C         -10.1922  -17.3068   22.2593 C.ar    1  UNL1       -0.0082
      3 C         -11.1432  -16.3125   22.8567 C.ar    1  UNL1       -0.0030
      4 C         -12.6080  -16.3942   22.5441 C.ar    1  UNL1       -0.0003
      5 C         -13.1217  -17.4702   21.6340 C.ar    1  UNL1       -0.0003
      6 C         -12.1708  -18.4645   21.0366 C.ar    1  UNL1       -0.0045
      7 C         -10.7060  -18.3828   21.3493 C.ar    1  UNL1       -0.0229
      8 C          -9.7550  -19.3772   20.7518 C.3     1  UNL1        0.0476
      9 C          -8.2902  -19.2955   21.0645 C.3     1  UNL1        0.0983
     10 N          -7.7764  -18.2194   21.9746 N.am    1  UNL1       -0.2760
     11 C          -6.3116  -18.1378   22.2873 C.2     1  UNL1        0.2420
     12 O          -5.7978  -17.0618   23.1973 O.2     1  UNL1       -0.2734
     13 C          -7.6308  -14.8934   22.9046 C.3     1  UNL1        0.0021
     14 C          -8.2136  -16.1491   23.4821 C.3     1  UNL1        0.0224
     15 C          -8.2827  -16.3288   24.9697 C.3     1  UNL1        0.0021
     16 C          -5.3606  -19.1321   21.6899 C.3     1  UNL1        0.1552
     17 N          -4.3408  -19.8089   22.5568 N.3     1  UNL1       -0.2879
     18 H          -4.1469  -20.7151   22.1307 H       1  UNL1        0.1238
     19 C          -3.0141  -19.1543   22.8049 C.3     1  UNL1        0.0961
     20 C          -2.1166  -18.8174   21.6512 C.3     1  UNL1        0.1027
     21 O          -2.1629  -20.3108   21.5178 O.3     1  UNL1       -0.3854
     22 C          -2.3820  -17.4411   22.1853 C.3     1  UNL1        0.0283
     23 C          -1.7660  -16.2466   21.5193 C.3     1  UNL1        0.0024
     24 C          -0.8845  -16.4284   20.3193 C.3     1  UNL1        0.0002
     25 C          -0.6191  -17.8047   19.7853 C.3     1  UNL1        0.0024
     26 C          -1.2351  -18.9993   20.4512 C.3     1  UNL1        0.0283
     27 H          -2.7235  -20.6807   22.2177 H       1  UNL1        0.2103
@<TRIPOS>BOND
     1    13    14    1
     2    14    15    1
     3    14     1    1
     4     1     2    1
     5     2     3   ar
     6     3     4   ar
     7     4     5   ar
     8     5     6   ar
     9     6     7   ar
    10     7     8    1
    11     8     9    1
    12     9    10    1
    13    10    11   am
    14    11    12    2
    15    11    16    1
    16    16    17    1
    17    17    19    1
    18    19    20    1
    19    20    21    1
    20    20    22    1
    21    22    23    1
    22    23    24    1
    23    24    25    1
    24    25    26    1
    25    10     1    1
    26    26    20    1
    27     7     2   ar
    28    17    18    1
    29    21    27    1
@<TRIPOS>MOLECULE
*****
 27 29 0 0 0
SMALL
GASTEIGER

@<TRIPOS>ATOM
      1 C          -8.3154  -17.0890   23.9114 C.3     1  UNL1        0.0975
      2 C          -7.7874  -16.3024   25.0744 C.ar    1  UNL1       -0.0082
      3 C          -8.7166  -15.8642   26.1673 C.ar    1  UNL1       -0.0030
      4 C          -8.1886  -15.0776   27.3302 C.ar    1  UNL1       -0.0003
      5 C          -6.7313  -14.7293   27.4003 C.ar    1  UNL1       -0.0003
      6 C          -5.8020  -15.1675   26.3074 C.ar    1  UNL1       -0.0045
      7 C          -6.3301  -15.9540   25.1445 C.ar    1  UNL1       -0.0229
      8 C          -5.4008  -16.3922   24.0515 C.3     1  UNL1        0.0476
      9 C          -5.9288  -17.1788   22.8886 C.3     1  UNL1        0.0983
     10 N          -7.3861  -17.5271   22.8185 N.am    1  UNL1       -0.2760
     11 C          -7.9141  -18.3137   21.6555 C.2     1  UNL1        0.2420
     12 O          -9.3714  -18.6621   21.5854 O.2     1  UNL1       -0.2734
     13 C         -10.7285  -16.5254   23.1309 C.3     1  UNL1        0.0021
     14 C          -9.7727  -17.4373   23.8413 C.3     1  UNL1        0.0224
     15 C         -10.2741  -18.6977   24.4817 C.3     1  UNL1        0.0021
     16 C          -6.9849  -18.7519   20.5626 C.3     1  UNL1        0.1552
     17 N          -6.1249  -19.9663   20.7514 N.3     1  UNL1       -0.2879
     18 H          -6.6402  -20.7555   20.3613 H       1  UNL1        0.1238
     19 C          -4.7488  -20.0108   20.1561 C.3     1  UNL1        0.0961
     20 C          -3.6320  -19.2355   20.7898 C.3     1  UNL1        0.1027
     21 O          -4.1742  -19.9441   21.9957 O.3     1  UNL1       -0.3854
     22 C          -3.4777  -18.7962   19.3640 C.3     1  UNL1        0.0283
     23 C          -2.3950  -17.8277   18.9906 C.3     1  UNL1        0.0024
     24 C          -1.4664  -17.2984   20.0431 C.3     1  UNL1        0.0002
     25 C          -1.6207  -17.7377   21.4690 C.3     1  UNL1        0.0024
     26 C          -2.7035  -18.7063   21.8424 C.3     1  UNL1        0.0283
     27 H          -4.9242  -20.5007   21.7336 H       1  UNL1        0.2103
@<TRIPOS>BOND
     1    13    14    1
     2    14    15    1
     3    14     1    1
     4     1     2    1
     5     2     3   ar
     6     3     4   ar
     7     4     5   ar
     8     5     6   ar
     9     6     7   ar
    10     7     8    1
    11     8     9    1
    12     9    10    1
    13    10    11   am
    14    11    12    2
    15    11    16    1
    16    16    17    1
    17    17    19    1
    18    19    20    1
    19    20    21    1
    20    20    22    1
    21    22    23    1
    22    23    24    1
    23    24    25    1
    24    25    26    1
    25    10     1    1
    26    26    20    1
    27     7     2   ar
    28    17    18    1
    29    21    27    1
@<TRIPOS>MOLECULE
*****
 27 29 0 0 0
SMALL
GASTEIGER

@<TRIPOS>ATOM
      1 C          -8.4193  -17.0938   23.9514 C.3     1  UNL1        0.0975
      2 C          -9.5154  -17.8045   23.2140 C.ar    1  UNL1       -0.0082
      3 C         -10.9185  -17.7727   23.7434 C.ar    1  UNL1       -0.0030
      4 C         -12.0145  -18.4833   23.0060 C.ar    1  UNL1       -0.0003
      5 C         -11.7074  -19.2257   21.7393 C.ar    1  UNL1       -0.0003
      6 C         -10.3043  -19.2574   21.2099 C.ar    1  UNL1       -0.0045
      7 C          -9.2083  -18.5468   21.9473 C.ar    1  UNL1       -0.0229
      8 C          -7.8051  -18.5785   21.4180 C.3     1  UNL1        0.0476
      9 C          -6.7091  -17.8679   22.1553 C.3     1  UNL1        0.0983
     10 N          -7.0162  -17.1256   23.4221 N.am    1  UNL1       -0.2760
     11 C          -5.9201  -16.4150   24.1594 C.2     1  UNL1        0.2420
     12 O          -6.2272  -15.6726   25.4262 O.2     1  UNL1       -0.2734
     13 C          -9.0741  -14.8933   25.1674 C.3     1  UNL1        0.0021
     14 C          -8.7264  -16.3515   25.2182 C.3     1  UNL1        0.0224
     15 C          -8.6857  -17.0674   26.5357 C.3     1  UNL1        0.0021
     16 C          -4.5170  -16.4467   23.6301 C.3     1  UNL1        0.1552
     17 N          -3.6917  -17.6917   23.7673 N.3     1  UNL1       -0.2879
     18 H          -4.2718  -18.4665   23.4456 H       1  UNL1        0.1238
     19 C          -2.3801  -17.8051   23.0481 C.3     1  UNL1        0.0961
     20 C          -2.3464  -17.8272   21.5487 C.3     1  UNL1        0.1027
     21 O          -1.5923  -16.5566   21.8075 O.3     1  UNL1       -0.3854
     22 C          -3.1121  -19.0901   21.8107 C.3     1  UNL1        0.0283
     23 C          -3.5823  -19.9339   20.6631 C.3     1  UNL1        0.0024
     24 C          -3.2867  -19.5148   19.2535 C.3     1  UNL1        0.0002
     25 C          -2.5209  -18.2519   18.9915 C.3     1  UNL1        0.0024
     26 C          -2.0507  -17.4081   20.1391 C.3     1  UNL1        0.0283
     27 H          -1.5317  -16.4056   22.7638 H       1  UNL1        0.2103
@<TRIPOS>BOND
     1    13    14    1
     2    14    15    1
     3    14     1    1
     4     1     2    1
     5     2     3   ar
     6     3     4   ar
     7     4     5   ar
     8     5     6   ar
     9     6     7   ar
    10     7     8    1
    11     8     9    1
    12     9    10    1
    13    10    11   am
    14    11    12    2
    15    11    16    1
    16    16    17    1
    17    17    19    1
    18    19    20    1
    19    20    21    1
    20    20    22    1
    21    22    23    1
    22    23    24    1
    23    24    25    1
    24    25    26    1
    25    10     1    1
    26    26    20    1
    27     7     2   ar
    28    17    18    1
    29    21    27    1
@<TRIPOS>MOLECULE
*****
 27 29 0 0 0
SMALL
GASTEIGER

@<TRIPOS>ATOM
      1 C          -5.6579  -17.1854   23.2945 C.3     1  UNL1        0.0975
      2 C          -4.7814  -18.1260   22.5216 C.ar    1  UNL1       -0.0082
      3 C          -3.2894  -18.0325   22.6441 C.ar    1  UNL1       -0.0030
      4 C          -2.4131  -18.9731   21.8713 C.ar    1  UNL1       -0.0003
      5 C          -3.0287  -20.0071   20.9759 C.ar    1  UNL1       -0.0003
      6 C          -4.5208  -20.1006   20.8534 C.ar    1  UNL1       -0.0045
      7 C          -5.3971  -19.1601   21.6263 C.ar    1  UNL1       -0.0229
      8 C          -6.8892  -19.2536   21.5038 C.3     1  UNL1        0.0476
      9 C          -7.7656  -18.3130   22.2766 C.3     1  UNL1        0.0983
     10 N          -7.1499  -17.2789   23.1720 N.am    1  UNL1       -0.2760
     11 C          -8.0263  -16.3383   23.9448 C.2     1  UNL1        0.2420
     12 O          -7.4106  -15.3042   24.8401 O.2     1  UNL1       -0.2734
     13 C          -4.6681  -14.8079   23.6374 C.3     1  UNL1        0.0021
     14 C          -5.0422  -16.1513   24.1898 C.3     1  UNL1        0.0224
     15 C          -4.8006  -16.4608   25.6376 C.3     1  UNL1        0.0021
     16 C          -9.5184  -16.4318   23.8223 C.3     1  UNL1        0.1552
     17 N         -10.2571  -17.5524   24.4920 N.3     1  UNL1       -0.2879
     18 H         -10.6542  -17.1715   25.3508 H       1  UNL1        0.1238
     19 C         -11.3721  -18.2515   23.7722 C.3     1  UNL1        0.0961
     20 C         -11.0998  -18.9671   22.4824 C.3     1  UNL1        0.1027
     21 O         -10.8262  -20.0740   23.4571 O.3     1  UNL1       -0.3854
     22 C         -11.4679  -17.6118   21.9557 C.3     1  UNL1        0.0283
     23 C         -11.4687  -17.3564   20.4776 C.3     1  UNL1        0.0024
     24 C         -11.1013  -18.4564   19.5262 C.3     1  UNL1        0.0002
     25 C         -10.7332  -19.8118   20.0529 C.3     1  UNL1        0.0024
     26 C         -10.7324  -20.0672   21.5310 C.3     1  UNL1        0.0283
     27 H         -10.9652  -19.7506   24.3610 H       1  UNL1        0.2103
@<TRIPOS>BOND
     1    13    14    1
     2    14    15    1
     3    14     1    1
     4     1     2    1
     5     2     3   ar
     6     3     4   ar
     7     4     5   ar
     8     5     6   ar
     9     6     7   ar
    10     7     8    1
    11     8     9    1
    12     9    10    1
    13    10    11   am
    14    11    12    2
    15    11    16    1
    16    16    17    1
    17    17    19    1
    18    19    20    1
    19    20    21    1
    20    20    22    1
    21    22    23    1
    22    23    24    1
    23    24    25    1
    24    25    26    1
    25    10     1    1
    26    26    20    1
    27     7     2   ar
    28    17    18    1
    29    21    27    1
@<TRIPOS>MOLECULE
*****
 27 29 0 0 0
SMALL
GASTEIGER

@<TRIPOS>ATOM
      1 C          -8.7445  -17.7710   21.6579 C.3     1  UNL1        0.0975
      2 C          -8.8794  -18.7830   20.5588 C.ar    1  UNL1       -0.0082
      3 C         -10.2005  -18.9761   19.8752 C.ar    1  UNL1       -0.0030
      4 C         -10.3354  -19.9880   18.7762 C.ar    1  UNL1       -0.0003
      5 C          -9.1492  -20.8067   18.3608 C.ar    1  UNL1       -0.0003
      6 C          -7.8281  -20.6136   19.0444 C.ar    1  UNL1       -0.0045
      7 C          -7.6932  -19.6017   20.1434 C.ar    1  UNL1       -0.0229
      8 C          -6.3721  -19.4085   20.8271 C.3     1  UNL1        0.0476
      9 C          -6.2372  -18.3967   21.9261 C.3     1  UNL1        0.0983
     10 N          -7.4234  -17.5779   22.3415 N.am    1  UNL1       -0.2760
     11 C          -7.2885  -16.5660   23.4406 C.2     1  UNL1        0.2420
     12 O          -8.4747  -15.7473   23.8560 O.2     1  UNL1       -0.2734
     13 C         -10.7933  -17.4064   23.2133 C.3     1  UNL1        0.0021
     14 C          -9.9307  -16.9523   22.0733 C.3     1  UNL1        0.0224
     15 C         -10.2543  -15.6794   21.3486 C.3     1  UNL1        0.0021
     16 C          -5.9674  -16.3729   24.1242 C.3     1  UNL1        0.1552
     17 N          -4.7732  -15.9243   23.3352 N.3     1  UNL1       -0.2879
     18 H          -4.5261  -14.9957   23.6775 H       1  UNL1        0.1238
     19 C          -3.5147  -16.7404   23.3502 C.3     1  UNL1        0.0961
     20 C          -2.7638  -16.9843   22.0748 C.3     1  UNL1        0.1027
     21 O          -2.8127  -15.4851   22.0655 O.3     1  UNL1       -0.3854
     22 C          -2.9757  -18.3987   22.5270 C.3     1  UNL1        0.0283
     23 C          -2.4537  -19.5365   21.7006 C.3     1  UNL1        0.0024
     24 C          -1.7198  -19.2599   20.4220 C.3     1  UNL1        0.0002
     25 C          -1.5079  -17.8455   19.9698 C.3     1  UNL1        0.0024
     26 C          -2.0299  -16.7077   20.7962 C.3     1  UNL1        0.0283
     27 H          -3.2829  -15.1721   22.8541 H       1  UNL1        0.2103
@<TRIPOS>BOND
     1    13    14    1
     2    14    15    1
     3    14     1    1
     4     1     2    1
     5     2     3   ar
     6     3     4   ar
     7     4     5   ar
     8     5     6   ar
     9     6     7   ar
    10     7     8    1
    11     8     9    1
    12     9    10    1
    13    10    11   am
    14    11    12    2
    15    11    16    1
    16    16    17    1
    17    17    19    1
    18    19    20    1
    19    20    21    1
    20    20    22    1
    21    22    23    1
    22    23    24    1
    23    24    25    1
    24    25    26    1
    25    10     1    1
    26    26    20    1
    27     7     2   ar
    28    17    18    1
    29    21    27    1
@<TRIPOS>MOLECULE
*****
 27 29 0 0 0
SMALL
GASTEIGER

@<TRIPOS>ATOM
      1 C          -5.8043  -17.9296   22.3518 C.3     1  UNL1        0.0975
      2 C          -5.8836  -16.9849   23.5142 C.ar    1  UNL1       -0.0082
      3 C          -4.6814  -16.7622   24.3831 C.ar    1  UNL1       -0.0030
      4 C          -4.7608  -15.8175   25.5455 C.ar    1  UNL1       -0.0003
      5 C          -6.0424  -15.0954   25.8390 C.ar    1  UNL1       -0.0003
      6 C          -7.2446  -15.3181   24.9701 C.ar    1  UNL1       -0.0045
      7 C          -7.1652  -16.2628   23.8077 C.ar    1  UNL1       -0.0229
      8 C          -8.3675  -16.4855   22.9387 C.3     1  UNL1        0.0476
      9 C          -8.2881  -17.4302   21.7763 C.3     1  UNL1        0.0983
     10 N          -7.0065  -18.1523   21.4829 N.am    1  UNL1       -0.2760
     11 C          -6.9271  -19.0970   20.3204 C.2     1  UNL1        0.2420
     12 O          -5.6455  -19.8191   20.0270 O.2     1  UNL1       -0.2734
     13 C          -3.4571  -17.9856   21.2393 C.3     1  UNL1        0.0021
     14 C          -4.5227  -18.6517   22.0583 C.3     1  UNL1        0.0224
     15 C          -4.3066  -20.0399   22.5839 C.3     1  UNL1        0.0021
     16 C          -8.1293  -19.3197   19.4515 C.3     1  UNL1        0.1552
     17 N          -9.3726  -19.9255   20.0322 N.3     1  UNL1       -0.2879
     18 H          -9.2605  -19.9128   21.0460 H       1  UNL1        0.1238
     19 C         -10.7117  -19.3175   19.7370 C.3     1  UNL1        0.0961
     20 C         -11.4074  -18.4933   20.7793 C.3     1  UNL1        0.1027
     21 O         -11.6571  -17.6453   19.5674 O.3     1  UNL1       -0.3854
     22 C         -10.9162  -19.6274   21.6292 C.3     1  UNL1        0.0283
     23 C         -11.2073  -19.6429   23.1006 C.3     1  UNL1        0.0024
     24 C         -11.9897  -18.5241   23.7221 C.3     1  UNL1        0.0002
     25 C         -12.4810  -17.3900   22.8722 C.3     1  UNL1        0.0024
     26 C         -12.1899  -17.3745   21.4009 C.3     1  UNL1        0.0283
     27 H         -11.2534  -18.0640   18.7911 H       1  UNL1        0.2103
@<TRIPOS>BOND
     1    13    14    1
     2    14    15    1
     3    14     1    1
     4     1     2    1
     5     2     3   ar
     6     3     4   ar
     7     4     5   ar
     8     5     6   ar
     9     6     7   ar
    10     7     8    1
    11     8     9    1
    12     9    10    1
    13    10    11   am
    14    11    12    2
    15    11    16    1
    16    16    17    1
    17    17    19    1
    18    19    20    1
    19    20    21    1
    20    20    22    1
    21    22    23    1
    22    23    24    1
    23    24    25    1
    24    25    26    1
    25    10     1    1
    26    26    20    1
    27     7     2   ar
    28    17    18    1
    29    21    27    1
@<TRIPOS>MOLECULE
*****
 27 29 0 0 0
SMALL
GASTEIGER

@<TRIPOS>ATOM
      1 C          -5.7256  -19.1411   21.1958 C.3     1  UNL1        0.0975
      2 C          -4.2591  -18.8795   21.0194 C.ar    1  UNL1       -0.0082
      3 C          -3.5212  -19.4926   19.8663 C.ar    1  UNL1       -0.0030
      4 C          -2.0548  -19.2309   19.6900 C.ar    1  UNL1       -0.0003
      5 C          -1.3263  -18.3561   20.6667 C.ar    1  UNL1       -0.0003
      6 C          -2.0641  -17.7431   21.8198 C.ar    1  UNL1       -0.0045
      7 C          -3.5305  -18.0047   21.9961 C.ar    1  UNL1       -0.0229
      8 C          -4.2685  -17.3916   23.1493 C.3     1  UNL1        0.0476
      9 C          -5.7349  -17.6533   23.3256 C.3     1  UNL1        0.0983
     10 N          -6.4634  -18.5281   22.3489 N.am    1  UNL1       -0.2760
     11 C          -7.9299  -18.7897   22.5252 C.2     1  UNL1        0.2420
     12 O          -8.6585  -19.6645   21.5485 O.2     1  UNL1       -0.2734
     13 C          -6.2741  -21.5043   20.2659 C.3     1  UNL1        0.0021
     14 C          -6.4541  -20.0159   20.2190 C.3     1  UNL1        0.0224
     15 C          -7.3627  -19.4022   19.1953 C.3     1  UNL1        0.0021
     16 C          -8.6678  -18.1766   23.6783 C.3     1  UNL1        0.1552
     17 N          -9.5875  -17.0144   23.4474 N.3     1  UNL1       -0.2879
     18 H         -10.5303  -17.3374   23.6646 H       1  UNL1        0.1238
     19 C          -9.3833  -15.7347   24.2029 C.3     1  UNL1        0.0961
     20 C          -8.0385  -15.4135   24.7845 C.3     1  UNL1        0.1027
     21 O          -7.8493  -14.8959   23.3893 O.3     1  UNL1       -0.3854
     22 C          -8.6947  -16.0426   25.9776 C.3     1  UNL1        0.0283
     23 C          -7.9404  -16.1707   27.2678 C.3     1  UNL1        0.0024
     24 C          -6.5299  -15.6697   27.3648 C.3     1  UNL1        0.0002
     25 C          -5.8737  -15.0406   26.1717 C.3     1  UNL1        0.0024
     26 C          -6.6279  -14.9125   24.8815 C.3     1  UNL1        0.0283
     27 H          -8.6615  -15.0389   22.8785 H       1  UNL1        0.2103
@<TRIPOS>BOND
     1    13    14    1
     2    14    15    1
     3    14     1    1
     4     1     2    1
     5     2     3   ar
     6     3     4   ar
     7     4     5   ar
     8     5     6   ar
     9     6     7   ar
    10     7     8    1
    11     8     9    1
    12     9    10    1
    13    10    11   am
    14    11    12    2
    15    11    16    1
    16    16    17    1
    17    17    19    1
    18    19    20    1
    19    20    21    1
    20    20    22    1
    21    22    23    1
    22    23    24    1
    23    24    25    1
    24    25    26    1
    25    10     1    1
    26    26    20    1
    27     7     2   ar
    28    17    18    1
    29    21    27    1
