@<TRIPOS>MOLECULE
*****
 25 27 0 0 0
SMALL
GASTEIGER

@<TRIPOS>ATOM
      1 C          -8.5341  -18.4249   22.2701 C.3     1  UNL1        0.1398
      2 O          -8.7346  -19.8529   21.8571 O.3     1  UNL1       -0.3772
      3 H          -9.6384  -20.1288   22.0757 H       1  UNL1        0.2112
      4 C          -9.9458  -18.3726   22.7747 C.ar    1  UNL1        0.0069
      5 C         -11.0463  -17.8924   21.8757 C.ar    1  UNL1       -0.0008
      6 C         -12.4578  -17.8401   22.3803 C.ar    1  UNL1        0.0112
      7 C         -12.7689  -18.2680   23.7839 C.ar    1  UNL1        0.0577
      8 CL        -14.1806  -18.2157   24.2885 Cl      1  UNL1       -0.0822
      9 C         -11.6684  -18.7482   24.6829 C.ar    1  UNL1        0.0112
     10 C         -10.2568  -18.8005   24.1783 C.ar    1  UNL1       -0.0008
     11 C          -7.1225  -18.4772   21.7655 C.ar    1  UNL1        0.0069
     12 C          -6.8446  -18.9185   20.3591 C.ar    1  UNL1       -0.0017
     13 C          -5.4330  -18.9708   19.8545 C.ar    1  UNL1       -0.0004
     14 C          -4.2992  -18.5817   20.7564 C.ar    1  UNL1       -0.0005
     15 C          -4.5771  -18.1404   22.1628 C.ar    1  UNL1       -0.0004
     16 C          -5.9888  -18.0881   22.6674 C.ar    1  UNL1       -0.0017
     17 C          -2.8876  -18.6340   20.2518 C.2     1  UNL1        0.0249
     18 C          -1.7459  -19.3593   20.9001 C.2     1  UNL1        0.1194
     19 N          -0.5225  -19.1437   20.0594 N.2     1  UNL1       -0.1510
     20 N          -0.9083  -18.2851   18.8914 N.2     1  UNL1       -0.1695
     21 C          -2.3700  -17.9701   19.0104 C.3     1  UNL1        0.1771
     22 N          -8.2768  -15.9165   21.6440 N.3     1  UNL1       -0.3186
     23 C          -8.3336  -16.9969   22.6831 C.3     1  UNL1        0.1010
     24 H          -8.1366  -15.0144   22.0988 H       1  UNL1        0.1189
     25 H          -9.1526  -15.9012   21.1212 H       1  UNL1        0.1189
@<TRIPOS>BOND
     1    22    23    1
     2    23     1    1
     3     1     2    1
     4     1     4    1
     5     4     5   ar
     6     5     6   ar
     7     6     7   ar
     8     7     8    1
     9     7     9   ar
    10     9    10   ar
    11     1    11    1
    12    11    12   ar
    13    12    13   ar
    14    13    14   ar
    15    14    17    1
    16    17    18    2
    17    18    19    1
    18    19    20    2
    19    20    21    1
    20    14    15   ar
    21    15    16   ar
    22    10     4   ar
    23    16    11   ar
    24    21    17    1
    25    22    24    1
    26    22    25    1
    27     2     3    1
@<TRIPOS>MOLECULE
*****
 25 27 0 0 0
SMALL
GASTEIGER

@<TRIPOS>ATOM
      1 C          -5.8246  -18.5363   21.7298 C.3     1  UNL1        0.1398
      2 O          -5.4237  -17.6359   22.8606 O.3     1  UNL1       -0.3772
      3 H          -4.4694  -17.4673   22.8169 H       1  UNL1        0.2112
      4 C          -4.4012  -18.5780   21.2584 C.ar    1  UNL1        0.0069
      5 C          -4.0969  -18.8488   19.8148 C.ar    1  UNL1       -0.0008
      6 C          -2.6735  -18.8906   19.3433 C.ar    1  UNL1        0.0112
      7 C          -1.5544  -18.6616   20.3156 C.ar    1  UNL1        0.0577
      8 CL         -0.1310  -18.7033   19.8441 Cl      1  UNL1       -0.0822
      9 C          -1.8587  -18.3908   21.7592 C.ar    1  UNL1        0.0112
     10 C          -3.2821  -18.3490   22.2306 C.ar    1  UNL1       -0.0008
     11 C          -7.2479  -18.4945   22.2013 C.ar    1  UNL1        0.0069
     12 C          -7.9578  -19.7672   22.5570 C.ar    1  UNL1       -0.0017
     13 C          -9.3812  -19.7254   23.0285 C.ar    1  UNL1       -0.0004
     14 C         -10.0947  -18.4111   23.1441 C.ar    1  UNL1       -0.0005
     15 C          -9.3849  -17.1385   22.7884 C.ar    1  UNL1       -0.0004
     16 C          -7.9615  -17.1802   22.3169 C.ar    1  UNL1       -0.0017
     17 C         -11.5181  -18.3694   23.6155 C.2     1  UNL1        0.0249
     18 C         -12.0265  -18.8800   24.9311 C.2     1  UNL1        0.1194
     19 N         -13.5056  -18.6359   24.9828 N.2     1  UNL1       -0.1510
     20 N         -13.9113  -17.9743   23.6991 N.2     1  UNL1       -0.1695
     21 C         -12.6829  -17.8096   22.8541 C.3     1  UNL1        0.1771
     22 N          -7.1815  -18.9460   19.5525 N.3     1  UNL1       -0.3186
     23 C          -6.2255  -19.4366   20.5991 C.3     1  UNL1        0.1010
     24 H          -7.3411  -19.6829   18.8655 H       1  UNL1        0.1189
     25 H          -6.7868  -18.1280   19.0881 H       1  UNL1        0.1189
@<TRIPOS>BOND
     1    22    23    1
     2    23     1    1
     3     1     2    1
     4     1     4    1
     5     4     5   ar
     6     5     6   ar
     7     6     7   ar
     8     7     8    1
     9     7     9   ar
    10     9    10   ar
    11     1    11    1
    12    11    12   ar
    13    12    13   ar
    14    13    14   ar
    15    14    17    1
    16    17    18    2
    17    18    19    1
    18    19    20    2
    19    20    21    1
    20    14    15   ar
    21    15    16   ar
    22    10     4   ar
    23    16    11   ar
    24    21    17    1
    25    22    24    1
    26    22    25    1
    27     2     3    1
@<TRIPOS>MOLECULE
*****
 25 27 0 0 0
SMALL
GASTEIGER

@<TRIPOS>ATOM
      1 C          -8.5350  -18.3802   22.3716 C.3     1  UNL1        0.1398
      2 O          -8.1947  -17.1483   23.1567 O.3     1  UNL1       -0.3772
      3 H          -8.9771  -16.8509   23.6468 H       1  UNL1        0.2112
      4 C          -9.9388  -18.3280   22.8979 C.ar    1  UNL1        0.0069
      5 C         -10.3848  -19.3071   23.9430 C.ar    1  UNL1       -0.0008
      6 C         -11.7884  -19.2548   24.4693 C.ar    1  UNL1        0.0112
      7 C         -12.7460  -18.2233   23.9504 C.ar    1  UNL1        0.0577
      8 CL        -14.1497  -18.1711   24.4768 Cl      1  UNL1       -0.0822
      9 C         -12.3000  -17.2442   22.9053 C.ar    1  UNL1        0.0112
     10 C         -10.8963  -17.2965   22.3791 C.ar    1  UNL1       -0.0008
     11 C          -7.1314  -18.4326   21.8452 C.ar    1  UNL1        0.0069
     12 C          -5.9839  -18.0425   22.7291 C.ar    1  UNL1       -0.0017
     13 C          -4.5803  -18.0948   22.2028 C.ar    1  UNL1       -0.0004
     14 C          -4.3241  -18.5372   20.7926 C.ar    1  UNL1       -0.0005
     15 C          -5.4715  -18.9273   19.9087 C.ar    1  UNL1       -0.0004
     16 C          -6.8752  -18.8750   20.4350 C.ar    1  UNL1       -0.0017
     17 C          -2.9205  -18.5895   20.2662 C.2     1  UNL1        0.0249
     18 C          -1.7578  -19.2735   20.9222 C.2     1  UNL1        0.1194
     19 N          -0.5518  -19.0738   20.0529 N.2     1  UNL1       -0.1510
     20 N          -0.9692  -18.2662   18.8597 N.2     1  UNL1       -0.1695
     21 C          -2.4331  -17.9670   18.9915 C.3     1  UNL1        0.1771
     22 N          -9.8961  -19.5442   20.4893 N.3     1  UNL1       -0.3186
     23 C          -8.8754  -19.6122   21.5864 C.3     1  UNL1        0.1010
     24 H         -10.0016  -20.4660   20.0655 H       1  UNL1        0.1189
     25 H          -9.5899  -18.8773   19.7809 H       1  UNL1        0.1189
@<TRIPOS>BOND
     1    22    23    1
     2    23     1    1
     3     1     2    1
     4     1     4    1
     5     4     5   ar
     6     5     6   ar
     7     6     7   ar
     8     7     8    1
     9     7     9   ar
    10     9    10   ar
    11     1    11    1
    12    11    12   ar
    13    12    13   ar
    14    13    14   ar
    15    14    17    1
    16    17    18    2
    17    18    19    1
    18    19    20    2
    19    20    21    1
    20    14    15   ar
    21    15    16   ar
    22    10     4   ar
    23    16    11   ar
    24    21    17    1
    25    22    24    1
    26    22    25    1
    27     2     3    1
@<TRIPOS>MOLECULE
*****
 25 27 0 0 0
SMALL
GASTEIGER

@<TRIPOS>ATOM
      1 C          -9.3014  -18.4655   23.0000 C.3     1  UNL1        0.1398
      2 O          -9.1379  -17.0093   23.3206 O.3     1  UNL1       -0.3772
      3 H          -9.9878  -16.6456   23.6145 H       1  UNL1        0.2112
      4 C         -10.7532  -18.3837   23.3686 C.ar    1  UNL1        0.0069
      5 C         -11.7253  -17.7138   22.4434 C.ar    1  UNL1       -0.0008
      6 C         -13.1770  -17.6321   22.8120 C.ar    1  UNL1        0.0112
      7 C         -13.6565  -18.2202   24.1059 C.ar    1  UNL1        0.0577
      8 CL        -15.1082  -18.1384   24.4746 Cl      1  UNL1       -0.0822
      9 C         -12.6843  -18.8901   25.0312 C.ar    1  UNL1        0.0112
     10 C         -11.2327  -18.9719   24.6625 C.ar    1  UNL1       -0.0008
     11 C          -7.8498  -18.5473   22.6313 C.ar    1  UNL1        0.0069
     12 C          -7.3264  -19.7528   21.9081 C.ar    1  UNL1       -0.0017
     13 C          -5.8747  -19.8346   21.5395 C.ar    1  UNL1       -0.0004
     14 C          -4.9464  -18.7110   21.8940 C.ar    1  UNL1       -0.0005
     15 C          -5.4697  -17.5055   22.6172 C.ar    1  UNL1       -0.0004
     16 C          -6.9214  -17.4237   22.9859 C.ar    1  UNL1       -0.0017
     17 C          -3.4947  -18.7928   21.5254 C.2     1  UNL1        0.0249
     18 C          -2.9455  -19.2064   20.1922 C.2     1  UNL1        0.1194
     19 N          -1.4487  -19.1446   20.2681 N.2     1  UNL1       -0.1510
     20 N          -1.0728  -18.6928   21.6482 N.2     1  UNL1       -0.1695
     21 C          -2.3373  -18.4753   22.4252 C.3     1  UNL1        0.1771
     22 N         -10.5061  -20.3600   21.6925 N.3     1  UNL1       -0.3186
     23 C          -9.4649  -19.9216   22.6793 C.3     1  UNL1        0.1010
     24 H         -10.4778  -21.3751   21.5967 H       1  UNL1        0.1189
     25 H         -10.3202  -19.9277   20.7875 H       1  UNL1        0.1189
@<TRIPOS>BOND
     1    22    23    1
     2    23     1    1
     3     1     2    1
     4     1     4    1
     5     4     5   ar
     6     5     6   ar
     7     6     7   ar
     8     7     8    1
     9     7     9   ar
    10     9    10   ar
    11     1    11    1
    12    11    12   ar
    13    12    13   ar
    14    13    14   ar
    15    14    17    1
    16    17    18    2
    17    18    19    1
    18    19    20    2
    19    20    21    1
    20    14    15   ar
    21    15    16   ar
    22    10     4   ar
    23    16    11   ar
    24    21    17    1
    25    22    24    1
    26    22    25    1
    27     2     3    1
@<TRIPOS>MOLECULE
*****
 25 27 0 0 0
SMALL
GASTEIGER

@<TRIPOS>ATOM
      1 C         -12.6551   -2.9341   18.9475 C.3     1  UNL1        0.1398
      2 O         -12.8608   -3.1133   20.4225 O.3     1  UNL1       -0.3772
      3 H         -12.3988   -3.9132   20.7186 H       1  UNL1        0.2112
      4 C         -11.8247   -4.1828   18.9116 C.ar    1  UNL1        0.0069
      5 C         -12.4807   -5.5242   19.0539 C.ar    1  UNL1       -0.0008
      6 C         -11.6503   -6.7728   19.0180 C.ar    1  UNL1        0.0112
      7 C         -10.1638   -6.6800   18.8397 C.ar    1  UNL1        0.0577
      8 CL         -9.3334   -7.9287   18.8038 Cl      1  UNL1       -0.0822
      9 C          -9.5078   -5.3386   18.6974 C.ar    1  UNL1        0.0112
     10 C         -10.3382   -4.0900   18.7333 C.ar    1  UNL1       -0.0008
     11 C         -13.4855   -1.6855   18.9834 C.ar    1  UNL1        0.0069
     12 C         -14.8404   -1.7040   19.6269 C.ar    1  UNL1       -0.0017
     13 C         -15.6708   -0.4554   19.6628 C.ar    1  UNL1       -0.0004
     14 C         -15.1464    0.8118   19.0552 C.ar    1  UNL1       -0.0005
     15 C         -13.7916    0.8304   18.4117 C.ar    1  UNL1       -0.0004
     16 C         -12.9611   -0.4183   18.3758 C.ar    1  UNL1       -0.0017
     17 C         -15.9768    2.0604   19.0911 C.2     1  UNL1        0.0249
     18 C         -15.6816    3.2929   19.8935 C.2     1  UNL1        0.1194
     19 N         -16.7705    4.2900   19.6292 N.2     1  UNL1       -0.1510
     20 N         -17.7388    3.6738   18.6634 N.2     1  UNL1       -0.1695
     21 C         -17.2482    2.2958   18.3308 C.3     1  UNL1        0.1771
     22 N         -13.4242   -3.3523   16.5014 N.3     1  UNL1       -0.3186
     23 C         -12.4495   -2.7550   17.4726 C.3     1  UNL1        0.1010
     24 H         -13.1321   -3.1340   15.5488 H       1  UNL1        0.1189
     25 H         -14.3526   -2.9647   16.6696 H       1  UNL1        0.1189
@<TRIPOS>BOND
     1    22    23    1
     2    23     1    1
     3     1     2    1
     4     1     4    1
     5     4     5   ar
     6     5     6   ar
     7     6     7   ar
     8     7     8    1
     9     7     9   ar
    10     9    10   ar
    11     1    11    1
    12    11    12   ar
    13    12    13   ar
    14    13    14   ar
    15    14    17    1
    16    17    18    2
    17    18    19    1
    18    19    20    2
    19    20    21    1
    20    14    15   ar
    21    15    16   ar
    22    10     4   ar
    23    16    11   ar
    24    21    17    1
    25    22    24    1
    26    22    25    1
    27     2     3    1
@<TRIPOS>MOLECULE
*****
 25 27 0 0 0
SMALL
GASTEIGER

@<TRIPOS>ATOM
      1 C          -6.8565  -18.8178   22.0659 C.3     1  UNL1        0.1398
      2 O          -6.9394  -20.3152   22.0366 O.3     1  UNL1       -0.3772
      3 H          -6.0984  -20.6794   21.7188 H       1  UNL1        0.2112
      4 C          -5.4478  -18.8857   21.5550 C.ar    1  UNL1        0.0069
      5 C          -4.2973  -18.7918   22.5127 C.ar    1  UNL1       -0.0008
      6 C          -2.8887  -18.8597   22.0018 C.ar    1  UNL1        0.0112
      7 C          -2.6306  -19.0215   20.5330 C.ar    1  UNL1        0.0577
      8 CL         -1.2219  -19.0894   20.0221 Cl      1  UNL1       -0.0822
      9 C          -3.7811  -19.1155   19.5753 C.ar    1  UNL1        0.0112
     10 C          -5.1898  -19.0476   20.0862 C.ar    1  UNL1       -0.0008
     11 C          -8.2652  -18.7499   22.5769 C.ar    1  UNL1        0.0069
     12 C          -9.1409  -17.5886   22.2099 C.ar    1  UNL1       -0.0017
     13 C         -10.5495  -17.5207   22.7208 C.ar    1  UNL1       -0.0004
     14 C         -11.0825  -18.6139   23.5987 C.ar    1  UNL1       -0.0005
     15 C         -10.2068  -19.7751   23.9657 C.ar    1  UNL1       -0.0004
     16 C          -8.7981  -19.8431   23.4548 C.ar    1  UNL1       -0.0017
     17 C         -12.4911  -18.5460   24.1097 C.2     1  UNL1        0.0249
     18 C         -13.6991  -18.1474   23.3147 C.2     1  UNL1        0.1194
     19 N         -14.8937  -18.2198   24.2190 N.2     1  UNL1       -0.1510
     20 N         -14.4240  -18.6630   25.5729 N.2     1  UNL1       -0.1695
     21 C         -12.9391  -18.8646   25.5053 C.3     1  UNL1        0.1771
     22 N          -6.4411  -16.6125   23.3753 N.3     1  UNL1       -0.3186
     23 C          -6.7737  -17.3204   22.0952 C.3     1  UNL1        0.1010
     24 H          -6.4275  -15.6056   23.2133 H       1  UNL1        0.1189
     25 H          -5.5245  -16.9165   23.7037 H       1  UNL1        0.1189
@<TRIPOS>BOND
     1    22    23    1
     2    23     1    1
     3     1     2    1
     4     1     4    1
     5     4     5   ar
     6     5     6   ar
     7     6     7   ar
     8     7     8    1
     9     7     9   ar
    10     9    10   ar
    11     1    11    1
    12    11    12   ar
    13    12    13   ar
    14    13    14   ar
    15    14    17    1
    16    17    18    2
    17    18    19    1
    18    19    20    2
    19    20    21    1
    20    14    15   ar
    21    15    16   ar
    22    10     4   ar
    23    16    11   ar
    24    21    17    1
    25    22    24    1
    26    22    25    1
    27     2     3    1
@<TRIPOS>MOLECULE
*****
 25 27 0 0 0
SMALL
GASTEIGER

@<TRIPOS>ATOM
      1 C           6.8841   -3.8470   30.6094 C.3     1  UNL1        0.1398
      2 O           6.3575   -2.8469   29.6233 O.3     1  UNL1       -0.3772
      3 H           6.4405   -3.2037   28.7252 H       1  UNL1        0.2112
      4 C           7.2065   -4.7860   29.4849 C.ar    1  UNL1        0.0069
      5 C           8.5434   -5.4642   29.4339 C.ar    1  UNL1       -0.0008
      6 C           8.8658   -6.4031   28.3095 C.ar    1  UNL1        0.0112
      7 C           7.8511   -6.6639   27.2359 C.ar    1  UNL1        0.0577
      8 CL          8.1735   -7.6028   26.1114 Cl      1  UNL1       -0.0822
      9 C           6.5142   -5.9857   27.2868 C.ar    1  UNL1        0.0112
     10 C           6.1919   -5.0468   28.4113 C.ar    1  UNL1       -0.0008
     11 C           6.5618   -2.9082   31.7339 C.ar    1  UNL1        0.0069
     12 C           5.1521   -2.7922   32.2334 C.ar    1  UNL1       -0.0017
     13 C           4.8298   -1.8533   33.3579 C.ar    1  UNL1       -0.0004
     14 C           5.9170   -1.0303   33.9829 C.ar    1  UNL1       -0.0005
     15 C           7.3266   -1.1462   33.4834 C.ar    1  UNL1       -0.0004
     16 C           7.6490   -2.0852   32.3588 C.ar    1  UNL1       -0.0017
     17 C           5.5947   -0.0914   35.1074 C.2     1  UNL1        0.0249
     18 C           6.0422   -0.2352   36.5319 C.2     1  UNL1        0.1194
     19 N           5.4923    0.9235   37.3097 N.2     1  UNL1       -0.1510
     20 N           4.7049    1.7834   36.3660 N.2     1  UNL1       -0.1695
     21 C           4.7682    1.1561   35.0049 C.3     1  UNL1        0.1771
     22 N           6.5226   -5.9488   32.0933 N.3     1  UNL1       -0.3186
     23 C           7.4107   -4.8472   31.5954 C.3     1  UNL1        0.1010
     24 H           7.0399   -6.5312   32.7518 H       1  UNL1        0.1189
     25 H           6.2135   -6.5185   31.3057 H       1  UNL1        0.1189
@<TRIPOS>BOND
     1    22    23    1
     2    23     1    1
     3     1     2    1
     4     1     4    1
     5     4     5   ar
     6     5     6   ar
     7     6     7   ar
     8     7     8    1
     9     7     9   ar
    10     9    10   ar
    11     1    11    1
    12    11    12   ar
    13    12    13   ar
    14    13    14   ar
    15    14    17    1
    16    17    18    2
    17    18    19    1
    18    19    20    2
    19    20    21    1
    20    14    15   ar
    21    15    16   ar
    22    10     4   ar
    23    16    11   ar
    24    21    17    1
    25    22    24    1
    26    22    25    1
    27     2     3    1
@<TRIPOS>MOLECULE
*****
 25 27 0 0 0
SMALL
GASTEIGER

@<TRIPOS>ATOM
      1 C         -15.1247   -5.7778   18.3623 C.3     1  UNL1        0.1398
      2 O         -15.7815   -5.7069   17.0156 O.3     1  UNL1       -0.3772
      3 H         -16.2088   -6.5553   16.8193 H       1  UNL1        0.2112
      4 C         -15.5935   -7.1943   18.5165 C.ar    1  UNL1        0.0069
      5 C         -14.9473   -8.2890   17.7203 C.ar    1  UNL1       -0.0008
      6 C         -15.4161   -9.7055   17.8745 C.ar    1  UNL1        0.0112
      7 C         -16.5311  -10.0272   18.8249 C.ar    1  UNL1        0.0577
      8 CL        -16.9999  -11.4438   18.9791 Cl      1  UNL1       -0.0822
      9 C         -17.1773   -8.9325   19.6211 C.ar    1  UNL1        0.0112
     10 C         -16.7085   -7.5161   19.4669 C.ar    1  UNL1       -0.0008
     11 C         -14.6559   -4.3613   18.2082 C.ar    1  UNL1        0.0069
     12 C         -13.7325   -3.9949   17.0843 C.ar    1  UNL1       -0.0017
     13 C         -13.2637   -2.5785   16.9302 C.ar    1  UNL1       -0.0004
     14 C         -13.7183   -1.5283   17.8999 C.ar    1  UNL1       -0.0005
     15 C         -14.6418   -1.8945   19.0237 C.ar    1  UNL1       -0.0004
     16 C         -15.1106   -3.3111   19.1779 C.ar    1  UNL1       -0.0017
     17 C         -13.2496   -0.1118   17.7458 C.2     1  UNL1        0.0249
     18 C         -11.8900    0.3216   17.2832 C.2     1  UNL1        0.1194
     19 N         -11.8582    1.8213   17.2787 N.2     1  UNL1       -0.1510
     20 N         -13.1981    2.3147   17.7385 N.2     1  UNL1       -0.1695
     21 C         -14.0580    1.1200   18.0271 C.3     1  UNL1        0.1771
     22 N         -13.0221   -6.2326   19.8191 N.3     1  UNL1       -0.3186
     23 C         -14.4680   -5.8486   19.7090 C.3     1  UNL1        0.1010
     24 H         -12.7433   -6.2299   20.8002 H       1  UNL1        0.1189
     25 H         -12.4522   -5.5632   19.3019 H       1  UNL1        0.1189
@<TRIPOS>BOND
     1    22    23    1
     2    23     1    1
     3     1     2    1
     4     1     4    1
     5     4     5   ar
     6     5     6   ar
     7     6     7   ar
     8     7     8    1
     9     7     9   ar
    10     9    10   ar
    11     1    11    1
    12    11    12   ar
    13    12    13   ar
    14    13    14   ar
    15    14    17    1
    16    17    18    2
    17    18    19    1
    18    19    20    2
    19    20    21    1
    20    14    15   ar
    21    15    16   ar
    22    10     4   ar
    23    16    11   ar
    24    21    17    1
    25    22    24    1
    26    22    25    1
    27     2     3    1
@<TRIPOS>MOLECULE
*****
 25 27 0 0 0
SMALL
GASTEIGER

@<TRIPOS>ATOM
      1 C           5.6880   -1.1239   33.2489 C.3     1  UNL1        0.1398
      2 O           7.0697   -0.6092   33.5242 O.3     1  UNL1       -0.3772
      3 H           7.6852   -0.9668   32.8653 H       1  UNL1        0.2112
      4 C           6.2090   -1.8926   32.0708 C.ar    1  UNL1        0.0069
      5 C           7.2156   -2.9859   32.2744 C.ar    1  UNL1       -0.0008
      6 C           7.7366   -3.7545   31.0964 C.ar    1  UNL1        0.0112
      7 C           7.2510   -3.4298   29.7148 C.ar    1  UNL1        0.0577
      8 CL          7.7720   -4.1984   28.5367 Cl      1  UNL1       -0.0822
      9 C           6.2444   -2.3365   29.5112 C.ar    1  UNL1        0.0112
     10 C           5.7235   -1.5679   30.6893 C.ar    1  UNL1       -0.0008
     11 C           5.1670   -0.3553   34.4269 C.ar    1  UNL1        0.0069
     12 C           5.7512   -0.5839   35.7895 C.ar    1  UNL1       -0.0017
     13 C           5.2301    0.1847   36.9675 C.ar    1  UNL1       -0.0004
     14 C           4.1249    1.1819   36.7830 C.ar    1  UNL1       -0.0005
     15 C           3.5406    1.4104   35.4205 C.ar    1  UNL1       -0.0004
     16 C           4.0617    0.6418   34.2424 C.ar    1  UNL1       -0.0017
     17 C           3.6038    1.9505   37.9610 C.2     1  UNL1        0.0249
     18 C           4.3639    2.9730   38.7527 C.2     1  UNL1        0.1194
     19 N           3.4610    3.4860   39.8352 N.2     1  UNL1       -0.1510
     20 N           2.1429    2.7805   39.7124 N.2     1  UNL1       -0.1695
     21 C           2.2312    1.8316   38.5541 C.3     1  UNL1        0.1771
     22 N           3.8869   -2.9795   33.4995 N.3     1  UNL1       -0.3186
     23 C           4.3063   -1.6387   32.9736 C.3     1  UNL1        0.1010
     24 H           2.9241   -3.1682   33.2202 H       1  UNL1        0.1189
     25 H           3.9522   -2.9811   34.5174 H       1  UNL1        0.1189
@<TRIPOS>BOND
     1    22    23    1
     2    23     1    1
     3     1     2    1
     4     1     4    1
     5     4     5   ar
     6     5     6   ar
     7     6     7   ar
     8     7     8    1
     9     7     9   ar
    10     9    10   ar
    11     1    11    1
    12    11    12   ar
    13    12    13   ar
    14    13    14   ar
    15    14    17    1
    16    17    18    2
    17    18    19    1
    18    19    20    2
    19    20    21    1
    20    14    15   ar
    21    15    16   ar
    22    10     4   ar
    23    16    11   ar
    24    21    17    1
    25    22    24    1
    26    22    25    1
    27     2     3    1
