@<TRIPOS>MOLECULE
*****
 22 24 0 0 0
SMALL
GASTEIGER

@<TRIPOS>ATOM
      1 C          -9.0160  -17.7537   22.3636 C.2     1  UNL1        0.2536
      2 O          -8.6398  -16.5043   21.6239 O.2     1  UNL1       -0.2697
      3 N          -8.0159  -18.8600   22.5244 N.am    1  UNL1       -0.2657
      4 H          -8.2628  -19.6801   23.0099 H       1  UNL1        0.1566
      5 C         -14.5213  -18.3265   24.6795 C.3     1  UNL1        0.0737
      6 C         -13.1450  -18.1833   24.1005 C.ar    1  UNL1        0.1396
      7 N         -12.9243  -17.3167   22.8963 N.ar    1  UNL1       -0.2290
      8 C         -11.5480  -17.1735   22.3173 C.ar    1  UNL1        0.1063
      9 C         -10.3923  -17.8969   22.9426 C.ar    1  UNL1        0.0919
     10 C         -10.6130  -18.7635   24.1468 C.ar    1  UNL1        0.1063
     11 N         -11.9893  -18.9067   24.7258 N.ar    1  UNL1       -0.2290
     12 C          -6.6396  -18.7168   21.9454 C.ar    1  UNL1        0.1344
     13 C          -6.3378  -19.2680   20.5833 C.ar    1  UNL1        0.0345
     14 C          -4.9615  -19.1248   20.0044 C.ar    1  UNL1        0.0044
     15 C          -3.8869  -18.4305   20.7875 C.ar    1  UNL1        0.0198
     16 C          -4.1887  -17.8793   22.1495 C.ar    1  UNL1        0.1003
     17 N          -5.5650  -18.0225   22.7285 N.ar    1  UNL1       -0.2290
     18 C          -2.5106  -18.2873   20.2085 C.ar    1  UNL1        0.0085
     19 C          -2.1807  -18.0767   18.7605 C.ar    1  UNL1        0.0075
     20 C          -0.6887  -17.9888   18.6330 C.ar    1  UNL1        0.0355
     21 S          -0.0964  -18.1451   20.0022 S.2     1  UNL1       -0.0859
     22 C          -1.2224  -18.3296   20.9760 C.ar    1  UNL1        0.0355
@<TRIPOS>BOND
     1     5     6    1
     2     6     7   ar
     3     7     8   ar
     4     8     9   ar
     5     9     1    1
     6     1     2    2
     7     1     3   am
     8     3    12    1
     9    12    13   ar
    10    13    14   ar
    11    14    15   ar
    12    15    18    1
    13    18    19   ar
    14    19    20   ar
    15    20    21   ar
    16    21    22   ar
    17    15    16   ar
    18    16    17   ar
    19     9    10   ar
    20    10    11   ar
    21    11     6   ar
    22    17    12   ar
    23    22    18   ar
    24     3     4    1
@<TRIPOS>MOLECULE
*****
 22 24 0 0 0
SMALL
GASTEIGER

@<TRIPOS>ATOM
      1 C          -4.6785  -17.8039   22.0395 C.2     1  UNL1        0.2536
      2 O          -4.9858  -17.0780   23.3157 O.2     1  UNL1       -0.2697
      3 N          -5.7780  -18.4877   21.2822 N.am    1  UNL1       -0.2657
      4 H          -5.5763  -18.9642   20.4446 H       1  UNL1        0.1566
      5 C           0.9485  -17.9718   19.9638 C.3     1  UNL1        0.0737
      6 C          -0.4583  -17.9298   20.4827 C.ar    1  UNL1        0.1396
      7 N          -1.2657  -19.1913   20.5639 N.ar    1  UNL1       -0.2290
      8 C          -2.6724  -19.1494   21.0828 C.ar    1  UNL1        0.1063
      9 C          -3.2718  -17.8459   21.5206 C.ar    1  UNL1        0.0919
     10 C          -2.4644  -16.5844   21.4394 C.ar    1  UNL1        0.1063
     11 N          -1.0576  -16.6263   20.9205 N.ar    1  UNL1       -0.2290
     12 C          -7.1847  -18.4458   21.8011 C.ar    1  UNL1        0.1344
     13 C          -7.7787  -19.6571   22.4569 C.ar    1  UNL1        0.0345
     14 C          -9.1855  -19.6151   22.9758 C.ar    1  UNL1        0.0044
     15 C          -9.9983  -18.3618   22.8390 C.ar    1  UNL1        0.0198
     16 C          -9.4043  -17.1506   22.1832 C.ar    1  UNL1        0.1003
     17 N          -7.9975  -17.1925   21.6643 N.ar    1  UNL1       -0.2290
     18 C         -11.4050  -18.3198   23.3579 C.ar    1  UNL1        0.0085
     19 C         -12.5901  -17.7370   22.6467 C.ar    1  UNL1        0.0075
     20 C         -13.7912  -17.9102   23.5283 C.ar    1  UNL1        0.0355
     21 S         -13.3484  -18.6002   24.7845 S.2     1  UNL1       -0.0859
     22 C         -11.8737  -18.8533   24.6792 C.ar    1  UNL1        0.0355
@<TRIPOS>BOND
     1     5     6    1
     2     6     7   ar
     3     7     8   ar
     4     8     9   ar
     5     9     1    1
     6     1     2    2
     7     1     3   am
     8     3    12    1
     9    12    13   ar
    10    13    14   ar
    11    14    15   ar
    12    15    18    1
    13    18    19   ar
    14    19    20   ar
    15    20    21   ar
    16    21    22   ar
    17    15    16   ar
    18    16    17   ar
    19     9    10   ar
    20    10    11   ar
    21    11     6   ar
    22    17    12   ar
    23    22    18   ar
    24     3     4    1
@<TRIPOS>MOLECULE
*****
 22 24 0 0 0
SMALL
GASTEIGER

@<TRIPOS>ATOM
      1 C          -5.5985  -18.9644   21.6867 C.2     1  UNL1        0.2536
      2 O          -6.1945  -20.3162   21.9464 O.2     1  UNL1       -0.2697
      3 N          -6.4149  -17.7277   21.9188 N.am    1  UNL1       -0.2657
      4 H          -6.0238  -16.8405   21.7484 H       1  UNL1        0.1566
      5 C           0.0510  -18.5044   19.7192 C.3     1  UNL1        0.0737
      6 C          -1.3614  -18.6194   20.2111 C.ar    1  UNL1        0.1396
      7 N          -2.4991  -18.6102   19.2336 N.ar    1  UNL1       -0.2290
      8 C          -3.9114  -18.7252   19.7255 C.ar    1  UNL1        0.1063
      9 C          -4.1861  -18.8494   21.1948 C.ar    1  UNL1        0.0919
     10 C          -3.0485  -18.8586   22.1723 C.ar    1  UNL1        0.1063
     11 N          -1.6361  -18.7436   21.6805 N.ar    1  UNL1       -0.2290
     12 C          -7.8273  -17.8427   22.4107 C.ar    1  UNL1        0.1344
     13 C          -8.9136  -17.0317   21.7684 C.ar    1  UNL1        0.0345
     14 C         -10.3259  -17.1467   22.2603 C.ar    1  UNL1        0.0044
     15 C         -10.6521  -18.0727   23.3944 C.ar    1  UNL1        0.0198
     16 C          -9.5659  -18.8837   24.0367 C.ar    1  UNL1        0.1003
     17 N          -8.1535  -18.7686   23.5448 N.ar    1  UNL1       -0.2290
     18 C         -12.0645  -18.1878   23.8863 C.ar    1  UNL1        0.0085
     19 C         -12.4953  -18.7603   25.2041 C.ar    1  UNL1        0.0075
     20 C         -13.9911  -18.6768   25.2790 C.ar    1  UNL1        0.0355
     21 S         -14.4848  -18.0526   24.0075 S.2     1  UNL1       -0.0859
     22 C         -13.2941  -17.7503   23.1467 C.ar    1  UNL1        0.0355
@<TRIPOS>BOND
     1     5     6    1
     2     6     7   ar
     3     7     8   ar
     4     8     9   ar
     5     9     1    1
     6     1     2    2
     7     1     3   am
     8     3    12    1
     9    12    13   ar
    10    13    14   ar
    11    14    15   ar
    12    15    18    1
    13    18    19   ar
    14    19    20   ar
    15    20    21   ar
    16    21    22   ar
    17    15    16   ar
    18    16    17   ar
    19     9    10   ar
    20    10    11   ar
    21    11     6   ar
    22    17    12   ar
    23    22    18   ar
    24     3     4    1
@<TRIPOS>MOLECULE
*****
 22 24 0 0 0
SMALL
GASTEIGER

@<TRIPOS>ATOM
      1 C           6.4797   -3.7431   30.0160 C.2     1  UNL1        0.2536
      2 O           6.1152   -2.3784   29.5113 O.2     1  UNL1       -0.2697
      3 N           6.4452   -4.0325   31.4874 N.am    1  UNL1       -0.2657
      4 H           6.6845   -4.9282   31.8186 H       1  UNL1        0.1566
      5 C           8.0751   -8.0445   26.1490 C.3     1  UNL1        0.0737
      6 C           7.6763   -6.9691   27.1158 C.ar    1  UNL1        0.1396
      7 N           8.0985   -7.0578   28.5524 N.ar    1  UNL1       -0.2290
      8 C           7.6996   -5.9825   29.5191 C.ar    1  UNL1        0.1063
      9 C           6.8785   -4.8185   29.0492 C.ar    1  UNL1        0.0919
     10 C           6.4563   -4.7298   27.6127 C.ar    1  UNL1        0.1063
     11 N           6.8552   -5.8051   26.6459 N.ar    1  UNL1       -0.2290
     12 C           6.0464   -2.9572   32.4541 C.ar    1  UNL1        0.1344
     13 C           7.0256   -1.8843   32.8285 C.ar    1  UNL1        0.0345
     14 C           6.6268   -0.8090   33.7952 C.ar    1  UNL1        0.0044
     15 C           5.2486   -0.8065   34.3876 C.ar    1  UNL1        0.0198
     16 C           4.2695   -1.8794   34.0132 C.ar    1  UNL1        0.1003
     17 N           4.6683   -2.9547   33.0465 N.ar    1  UNL1       -0.2290
     18 C           4.8498    0.2688   35.3543 C.ar    1  UNL1        0.0085
     19 C           4.9505    0.1924   36.8489 C.ar    1  UNL1        0.0075
     20 C           4.4431    1.4857   37.4145 C.ar    1  UNL1        0.0355
     21 S           4.0288    2.3615   36.2694 S.2     1  UNL1       -0.0859
     22 C           4.2801    1.6095   34.9961 C.ar    1  UNL1        0.0355
@<TRIPOS>BOND
     1     5     6    1
     2     6     7   ar
     3     7     8   ar
     4     8     9   ar
     5     9     1    1
     6     1     2    2
     7     1     3   am
     8     3    12    1
     9    12    13   ar
    10    13    14   ar
    11    14    15   ar
    12    15    18    1
    13    18    19   ar
    14    19    20   ar
    15    20    21   ar
    16    21    22   ar
    17    15    16   ar
    18    16    17   ar
    19     9    10   ar
    20    10    11   ar
    21    11     6   ar
    22    17    12   ar
    23    22    18   ar
    24     3     4    1
@<TRIPOS>MOLECULE
*****
 22 24 0 0 0
SMALL
GASTEIGER

@<TRIPOS>ATOM
      1 C           5.4328   -3.7611   21.5162 C.2     1  UNL1        0.2536
      2 O           4.4097   -4.4736   22.3502 O.2     1  UNL1       -0.2697
      3 N           6.8817   -3.8130   21.9004 N.am    1  UNL1       -0.2657
      4 H           7.5532   -3.3453   21.3530 H       1  UNL1        0.1566
      5 C           3.7290   -0.7037   16.6428 C.3     1  UNL1        0.0737
      6 C           4.1549   -1.4681   17.8611 C.ar    1  UNL1        0.1396
      7 N           3.4176   -1.2884   19.1550 N.ar    1  UNL1       -0.2290
      8 C           3.8436   -2.0528   20.3733 C.ar    1  UNL1        0.1063
      9 C           5.0068   -2.9968   20.2978 C.ar    1  UNL1        0.0919
     10 C           5.7441   -3.1764   19.0040 C.ar    1  UNL1        0.1063
     11 N           5.3181   -2.4121   17.7856 N.ar    1  UNL1       -0.2290
     12 C           7.3077   -4.5773   23.1188 C.ar    1  UNL1        0.1344
     13 C           7.1665   -3.9602   24.4787 C.ar    1  UNL1        0.0345
     14 C           7.5925   -4.7245   25.6970 C.ar    1  UNL1        0.0044
     15 C           8.1596   -6.1060   25.5554 C.ar    1  UNL1        0.0198
     16 C           8.3007   -6.7231   24.1956 C.ar    1  UNL1        0.1003
     17 N           7.8748   -5.9587   22.9772 N.ar    1  UNL1       -0.2290
     18 C           8.5855   -6.8703   26.7738 C.ar    1  UNL1        0.0085
     19 C           8.8648   -8.3427   26.8380 C.ar    1  UNL1        0.0075
     20 C           9.2589   -8.6789   28.2457 C.ar    1  UNL1        0.0355
     21 S           9.2232   -7.4142   29.0516 S.2     1  UNL1       -0.0859
     22 C           8.8070   -6.2964   28.1419 C.ar    1  UNL1        0.0355
@<TRIPOS>BOND
     1     5     6    1
     2     6     7   ar
     3     7     8   ar
     4     8     9   ar
     5     9     1    1
     6     1     2    2
     7     1     3   am
     8     3    12    1
     9    12    13   ar
    10    13    14   ar
    11    14    15   ar
    12    15    18    1
    13    18    19   ar
    14    19    20   ar
    15    20    21   ar
    16    21    22   ar
    17    15    16   ar
    18    16    17   ar
    19     9    10   ar
    20    10    11   ar
    21    11     6   ar
    22    17    12   ar
    23    22    18   ar
    24     3     4    1
@<TRIPOS>MOLECULE
*****
 22 24 0 0 0
SMALL
GASTEIGER

@<TRIPOS>ATOM
      1 C           4.8158   -1.5406   33.4633 C.2     1  UNL1        0.2536
      2 O           3.8313   -2.6504   33.2425 O.2     1  UNL1       -0.2697
      3 N           6.0821   -1.4907   32.6608 N.am    1  UNL1       -0.2657
      4 H           6.7283   -0.7623   32.8057 H       1  UNL1        0.1566
      5 C           3.6889    2.6995   37.5562 C.3     1  UNL1        0.0737
      6 C           3.9707    1.6395   36.5329 C.ar    1  UNL1        0.1396
      7 N           4.7262    0.4035   36.9220 N.ar    1  UNL1       -0.2290
      8 C           5.0079   -0.6566   35.8987 C.ar    1  UNL1        0.1063
      9 C           4.5341   -0.4806   34.4865 C.ar    1  UNL1        0.0919
     10 C           3.7786    0.7555   34.0975 C.ar    1  UNL1        0.1063
     11 N           3.4969    1.8155   35.1207 N.ar    1  UNL1       -0.2290
     12 C           6.3638   -2.5508   31.6376 C.ar    1  UNL1        0.1344
     13 C           6.2289   -2.2378   30.1768 C.ar    1  UNL1        0.0345
     14 C           6.5106   -3.2978   29.1535 C.ar    1  UNL1        0.0044
     15 C           6.9273   -4.6708   29.5911 C.ar    1  UNL1        0.0198
     16 C           7.0622   -4.9837   31.0519 C.ar    1  UNL1        0.1003
     17 N           6.7805   -3.9237   32.0751 N.ar    1  UNL1       -0.2290
     18 C           7.2090   -5.7308   28.5679 C.ar    1  UNL1        0.0085
     19 C           6.5770   -5.8374   27.2118 C.ar    1  UNL1        0.0075
     20 C           7.1496   -7.0428   26.5269 C.ar    1  UNL1        0.0355
     21 S           8.1355   -7.6813   27.4597 S.2     1  UNL1       -0.0859
     22 C           8.1723   -6.8705   28.7212 C.ar    1  UNL1        0.0355
@<TRIPOS>BOND
     1     5     6    1
     2     6     7   ar
     3     7     8   ar
     4     8     9   ar
     5     9     1    1
     6     1     2    2
     7     1     3   am
     8     3    12    1
     9    12    13   ar
    10    13    14   ar
    11    14    15   ar
    12    15    18    1
    13    18    19   ar
    14    19    20   ar
    15    20    21   ar
    16    21    22   ar
    17    15    16   ar
    18    16    17   ar
    19     9    10   ar
    20    10    11   ar
    21    11     6   ar
    22    17    12   ar
    23    22    18   ar
    24     3     4    1
@<TRIPOS>MOLECULE
*****
 22 24 0 0 0
SMALL
GASTEIGER

@<TRIPOS>ATOM
      1 C           5.5080    0.6164   36.4765 C.2     1  UNL1        0.2536
      2 O           6.2742   -0.5790   36.9599 O.2     1  UNL1       -0.2697
      3 N           5.1014    0.7144   35.0360 N.am    1  UNL1       -0.2657
      4 H           4.5985    1.4990   34.7188 H       1  UNL1        0.1566
      5 C           4.0695    5.0066   40.3050 C.3     1  UNL1        0.0737
      6 C           4.4291    3.9091   39.3478 C.ar    1  UNL1        0.1396
      7 N           3.8632    2.5330   39.5378 N.ar    1  UNL1       -0.2290
      8 C           4.2228    1.4355   38.5806 C.ar    1  UNL1        0.1063
      9 C           5.1484    1.7140   37.4336 C.ar    1  UNL1        0.0919
     10 C           5.7143    3.0901   37.2437 C.ar    1  UNL1        0.1063
     11 N           5.3547    4.1876   38.2008 N.ar    1  UNL1       -0.2290
     12 C           5.4610   -0.3832   34.0789 C.ar    1  UNL1        0.1344
     13 C           4.5385   -1.5520   33.8972 C.ar    1  UNL1        0.0345
     14 C           4.8981   -2.6495   32.9401 C.ar    1  UNL1        0.0044
     15 C           6.1803   -2.5783   32.1647 C.ar    1  UNL1        0.0198
     16 C           7.1027   -1.4096   32.3465 C.ar    1  UNL1        0.1003
     17 N           6.7431   -0.3120   33.3036 N.ar    1  UNL1       -0.2290
     18 C           6.5399   -3.6758   31.2076 C.ar    1  UNL1        0.0085
     19 C           6.9424   -5.0724   31.5785 C.ar    1  UNL1        0.0075
     20 C           7.2114   -5.8292   30.3117 C.ar    1  UNL1        0.0355
     21 S           6.9752   -4.9004   29.1578 S.2     1  UNL1       -0.0859
     22 C           6.5601   -3.5695   29.7114 C.ar    1  UNL1        0.0355
@<TRIPOS>BOND
     1     5     6    1
     2     6     7   ar
     3     7     8   ar
     4     8     9   ar
     5     9     1    1
     6     1     2    2
     7     1     3   am
     8     3    12    1
     9    12    13   ar
    10    13    14   ar
    11    14    15   ar
    12    15    18    1
    13    18    19   ar
    14    19    20   ar
    15    20    21   ar
    16    21    22   ar
    17    15    16   ar
    18    16    17   ar
    19     9    10   ar
    20    10    11   ar
    21    11     6   ar
    22    17    12   ar
    23    22    18   ar
    24     3     4    1
@<TRIPOS>MOLECULE
*****
 22 24 0 0 0
SMALL
GASTEIGER

@<TRIPOS>ATOM
      1 C          -2.2350    3.5159   22.0602 C.2     1  UNL1        0.2536
      2 O          -0.9437    3.7606   22.7830 O.2     1  UNL1       -0.2697
      3 N          -2.2312    2.8151   20.7341 N.am    1  UNL1       -0.2657
      4 H          -3.0788    2.6545   20.2597 H       1  UNL1        0.1566
      5 C          -7.4162    5.3409   24.4739 C.3     1  UNL1        0.0737
      6 C          -6.1209    4.8847   23.8705 C.ar    1  UNL1        0.1396
      7 N          -4.8274    5.4967   24.3200 N.ar    1  UNL1       -0.2290
      8 C          -3.5321    5.0405   23.7165 C.ar    1  UNL1        0.1063
      9 C          -3.5303    3.9722   22.6637 C.ar    1  UNL1        0.0919
     10 C          -4.8239    3.3601   22.2142 C.ar    1  UNL1        0.1063
     11 N          -6.1191    3.8163   22.8176 N.ar    1  UNL1       -0.2290
     12 C          -0.9359    2.3588   20.1307 C.ar    1  UNL1        0.1344
     13 C          -0.2359    3.2177   19.1195 C.ar    1  UNL1        0.0345
     14 C           1.0594    2.7615   18.5161 C.ar    1  UNL1        0.0044
     15 C           1.6547    1.4463   18.9239 C.ar    1  UNL1        0.0198
     16 C           0.9546    0.5875   19.9350 C.ar    1  UNL1        0.1003
     17 N          -0.3406    1.0438   20.5384 N.ar    1  UNL1       -0.2290
     18 C           2.9499    0.9901   18.3205 C.ar    1  UNL1        0.0085
     19 C           3.1813   -0.3094   17.6079 C.ar    1  UNL1        0.0075
     20 C           4.6156   -0.3494   17.1707 C.ar    1  UNL1        0.0355
     21 S           5.2708    0.9254   17.6131 S.2     1  UNL1       -0.0859
     22 C           4.2413    1.7533   18.3237 C.ar    1  UNL1        0.0355
@<TRIPOS>BOND
     1     5     6    1
     2     6     7   ar
     3     7     8   ar
     4     8     9   ar
     5     9     1    1
     6     1     2    2
     7     1     3   am
     8     3    12    1
     9    12    13   ar
    10    13    14   ar
    11    14    15   ar
    12    15    18    1
    13    18    19   ar
    14    19    20   ar
    15    20    21   ar
    16    21    22   ar
    17    15    16   ar
    18    16    17   ar
    19     9    10   ar
    20    10    11   ar
    21    11     6   ar
    22    17    12   ar
    23    22    18   ar
    24     3     4    1
@<TRIPOS>MOLECULE
*****
 22 24 0 0 0
SMALL
GASTEIGER

@<TRIPOS>ATOM
      1 C          -1.1078    2.4052   26.3112 C.2     1  UNL1        0.2536
      2 O          -0.5761    1.5285   25.2163 O.2     1  UNL1       -0.2697
      3 N          -2.2185    3.3719   26.0252 N.am    1  UNL1       -0.2657
      4 H          -2.5675    3.9472   26.7438 H       1  UNL1        0.1566
      5 C           1.2081    2.0450   31.8345 C.3     1  UNL1        0.0737
      6 C           0.6292    2.1351   30.4537 C.ar    1  UNL1        0.1396
      7 N           0.8142    3.3833   29.6427 N.ar    1  UNL1       -0.2290
      8 C           0.2352    3.4733   28.2619 C.ar    1  UNL1        0.1063
      9 C          -0.5288    2.3151   27.6920 C.ar    1  UNL1        0.0919
     10 C          -0.7138    1.0669   28.5029 C.ar    1  UNL1        0.1063
     11 N          -0.1349    0.9769   29.8838 N.ar    1  UNL1       -0.2290
     12 C          -2.7975    3.4619   24.6444 C.ar    1  UNL1        0.1344
     13 C          -4.2511    3.1672   24.4199 C.ar    1  UNL1        0.0345
     14 C          -4.8301    3.2572   23.0391 C.ar    1  UNL1        0.0044
     15 C          -3.9555    3.6420   21.8827 C.ar    1  UNL1        0.0198
     16 C          -2.5020    3.9366   22.1072 C.ar    1  UNL1        0.1003
     17 N          -1.9230    3.8466   23.4880 N.ar    1  UNL1       -0.2290
     18 C          -4.5344    3.7320   20.5019 C.ar    1  UNL1        0.0085
     19 C          -5.9923    3.8250   20.1615 C.ar    1  UNL1        0.0075
     20 C          -6.1161    3.8954   18.6683 C.ar    1  UNL1        0.0355
     21 S          -4.7347    3.8458   18.0858 S.2     1  UNL1       -0.0859
     22 C          -3.7571    3.7448   19.2190 C.ar    1  UNL1        0.0355
@<TRIPOS>BOND
     1     5     6    1
     2     6     7   ar
     3     7     8   ar
     4     8     9   ar
     5     9     1    1
     6     1     2    2
     7     1     3   am
     8     3    12    1
     9    12    13   ar
    10    13    14   ar
    11    14    15   ar
    12    15    18    1
    13    18    19   ar
    14    19    20   ar
    15    20    21   ar
    16    21    22   ar
    17    15    16   ar
    18    16    17   ar
    19     9    10   ar
    20    10    11   ar
    21    11     6   ar
    22    17    12   ar
    23    22    18   ar
    24     3     4    1
