@<TRIPOS>MOLECULE
*****
 40 43 0 0 0
SMALL
GASTEIGER

@<TRIPOS>ATOM
      1 CA          6.1041   -2.6361   22.4214 C.3     1  UNL1        0.1786
      2 C           6.8565   -3.9203   22.6078 C.2     1  UNL1        0.2505
      3 O           7.4674   -4.9350   21.6873 O.2     1  UNL1       -0.2726
      4 N           6.7449   -3.7696   24.0961 N.am    1  UNL1       -0.2468
      5 CA          7.0246   -4.2811   25.4781 C.2     1  UNL1        0.0623
      6 C           6.5518   -3.5084   26.6737 C.2     1  UNL1       -0.0073
      7 C           5.7994   -2.2242   26.4872 C.3     1  UNL1        0.0833
      8 S           5.5198   -1.7127   25.1052 S.3     1  UNL1       -0.1142
      9 C           5.9925   -2.4854   23.9096 C.3     1  UNL1        0.1548
     10 C           4.9021   -2.5021   20.1220 C.2     1  UNL1        0.2687
     11 O           4.6064   -3.9711   20.1909 O.2     1  UNL1       -0.2683
     12 N           5.6509   -1.8347   21.2371 N.am    1  UNL1       -0.2914
     13 H           5.8449   -0.8705   21.1918 H       1  UNL1        0.1503
     14 N           5.2657   -1.6940   17.6796 N.2     1  UNL1       -0.0767
     15 C           4.4489   -1.7007   18.9378 C.2     1  UNL1        0.1904
     16 C           3.1789   -0.9060   19.0116 C.ar    1  UNL1        0.1150
     17 C           2.7629    0.1814   18.0658 C.ar    1  UNL1        0.0590
     18 S           1.4288    0.7003   18.5139 S.2     1  UNL1       -0.0514
     19 C           1.0202   -0.0664   19.7367 C.ar    1  UNL1        0.1568
     20 N          -0.2475    0.1258   20.5152 N.pl3   1  UNL1       -0.3375
     21 N           2.1018   -1.0592   20.0443 N.ar    1  UNL1       -0.2227
     22 H          -0.8999    0.8070   20.2331 H       1  UNL1        0.1442
     23 H          -0.4271   -0.4292   21.3083 H       1  UNL1        0.1442
     24 C           7.7281   -2.0740   18.4159 C.3     1  UNL1        0.2885
     25 O           6.5357   -2.4887   17.6058 O.2     1  UNL1       -0.3729
     26 C           7.7770   -5.5653   25.6646 C.2     1  UNL1        0.0860
     27 O           7.0467   -6.8096   26.0750 O.co2   1  UNL1       -0.5433
     28 OXT         9.2596   -5.6051   25.4407 O.co2   1  UNL1       -0.5433
     29 C           6.8314   -4.0199   28.0558 C.3     1  UNL1        0.0892
     30 S           7.2983   -3.0765   29.1245 S.3     1  UNL1       -0.0713
     31 C           6.4520   -2.8427   30.3406 C.ar    1  UNL1        0.1905
     32 N           5.5113   -1.6753   30.3864 N.ar    1  UNL1       -0.1790
     33 C           4.6649   -1.4414   31.6026 C.ar    1  UNL1        0.3356
     34 O           3.7241   -0.2740   31.6485 O.2     1  UNL1       -0.2599
     35 C           4.7593   -2.3750   32.7729 C.ar    1  UNL1        0.2980
     36 O           3.9130   -2.1411   33.9890 O.3     1  UNL1       -0.4878
     37 N           5.7001   -3.5424   32.7270 N.ar    1  UNL1       -0.1253
     38 N           6.5464   -3.7763   31.5109 N.ar    1  UNL1       -0.2240
     39 C           7.4872   -4.9437   31.4650 C.3     1  UNL1        0.1560
     40 H           3.3253   -1.4118   34.0176 H       1  UNL1        0.2939
@<TRIPOS>UNITY_ATOM_ATTR
27 1
charge -1
@<TRIPOS>BOND
     1    24    25    1
     2    25    14    1
     3    14    15    2
     4    15    10    1
     5    10    11    2
     6    10    12   am
     7     1    12    1
     8     1     2    1
     9     2     3    2
    10     2     4   am
    11     4     5    1
    12     5    26    1
    13    26    27   ar
    14    26    28   ar
    15     5     6    2
    16     6    29    1
    17    29    30    1
    18    30    31    1
    19    31    32   ar
    20    32    33   ar
    21    33    34    2
    22    33    35   ar
    23    35    36    1
    24    35    37   ar
    25    37    38   ar
    26    38    39    1
    27     6     7    1
    28     7     8    1
    29     9     8    1
    30    15    16    1
    31    16    17   ar
    32    17    18   ar
    33    18    19   ar
    34    19    20    1
    35    19    21   ar
    36     9     1    1
    37    21    16   ar
    38     9     4    1
    39    38    31   ar
    40    12    13    1
    41    36    40    1
    42    20    22    1
    43    20    23    1
@<TRIPOS>MOLECULE
*****
 40 43 0 0 0
SMALL
GASTEIGER

@<TRIPOS>ATOM
      1 CA          6.5944   -3.7479   25.2598 C.3     1  UNL1        0.1786
      2 C           6.7233   -4.5068   23.9724 C.2     1  UNL1        0.2505
      3 O           7.5315   -5.6834   23.5111 O.2     1  UNL1       -0.2726
      4 N           5.7095   -3.6019   23.3374 N.am    1  UNL1       -0.2468
      5 CA          4.8959   -3.1977   22.1438 C.2     1  UNL1        0.0623
      6 C           3.9534   -2.0346   22.2376 C.2     1  UNL1       -0.0073
      7 C           3.8245   -1.2757   23.5250 C.3     1  UNL1        0.0833
      8 S           4.6380   -1.6799   24.7186 S.3     1  UNL1       -0.1142
      9 C           5.5805   -2.8430   24.6248 C.3     1  UNL1        0.1548
     10 C           7.0564   -5.1044   27.4270 C.2     1  UNL1        0.2687
     11 O           6.2670   -6.2545   26.8754 O.2     1  UNL1       -0.2683
     12 N           7.2201   -3.8512   26.6192 N.am    1  UNL1       -0.2914
     13 H           7.7382   -3.0964   26.9812 H       1  UNL1        0.1503
     14 N           8.8355   -6.1397   29.0123 N.2     1  UNL1       -0.0767
     15 C           7.6821   -5.2077   28.7863 C.2     1  UNL1        0.1904
     16 C           7.1543   -4.3790   29.9198 C.ar    1  UNL1        0.1150
     17 C           7.2139   -4.7361   31.3755 C.ar    1  UNL1        0.0590
     18 S           6.5708   -3.6255   32.1519 S.2     1  UNL1       -0.0514
     19 C           6.1137   -2.5820   31.1761 C.ar    1  UNL1        0.1568
     20 N           5.4181   -1.2981   31.5196 N.pl3   1  UNL1       -0.3375
     21 N           6.4743   -3.0476   29.7966 N.ar    1  UNL1       -0.2227
     22 H           5.2237   -1.0798   32.4597 H       1  UNL1        0.1442
     23 H           5.1559   -0.6739   30.8049 H       1  UNL1        0.1442
     24 C           8.9768   -8.4131   27.7627 C.3     1  UNL1        0.2885
     25 O           9.3632   -6.9684   27.8788 O.2     1  UNL1       -0.3729
     26 C           5.0249   -3.9566   20.8564 C.2     1  UNL1        0.0860
     27 O           6.2407   -3.7744   19.9969 O.co2   1  UNL1       -0.5433
     28 OXT         3.9382   -4.8978   20.4285 O.co2   1  UNL1       -0.5433
     29 C           3.1399   -1.6304   21.0440 C.3     1  UNL1        0.0892
     30 S           3.2709   -0.2463   20.4809 S.3     1  UNL1       -0.0713
     31 C           4.2557    0.0266   19.3829 C.ar    1  UNL1        0.1905
     32 N           5.0790   -1.0930   18.8185 N.ar    1  UNL1       -0.1790
     33 C           6.0638   -0.8201   17.7204 C.ar    1  UNL1        0.3356
     34 O           6.8871   -1.9397   17.1559 O.2     1  UNL1       -0.2599
     35 C           6.2253    0.5724   17.1868 C.ar    1  UNL1        0.2980
     36 O           7.2101    0.8453   16.0888 O.3     1  UNL1       -0.4878
     37 N           5.4020    1.6921   17.7512 N.ar    1  UNL1       -0.1253
     38 N           4.4172    1.4192   18.8492 N.ar    1  UNL1       -0.2240
     39 C           3.5939    2.5388   19.4137 C.3     1  UNL1        0.1560
     40 H           7.7244    0.1459   15.7362 H       1  UNL1        0.2939
@<TRIPOS>UNITY_ATOM_ATTR
27 1
charge -1
@<TRIPOS>BOND
     1    24    25    1
     2    25    14    1
     3    14    15    2
     4    15    10    1
     5    10    11    2
     6    10    12   am
     7     1    12    1
     8     1     2    1
     9     2     3    2
    10     2     4   am
    11     4     5    1
    12     5    26    1
    13    26    27   ar
    14    26    28   ar
    15     5     6    2
    16     6    29    1
    17    29    30    1
    18    30    31    1
    19    31    32   ar
    20    32    33   ar
    21    33    34    2
    22    33    35   ar
    23    35    36    1
    24    35    37   ar
    25    37    38   ar
    26    38    39    1
    27     6     7    1
    28     7     8    1
    29     9     8    1
    30    15    16    1
    31    16    17   ar
    32    17    18   ar
    33    18    19   ar
    34    19    20    1
    35    19    21   ar
    36     9     1    1
    37    21    16   ar
    38     9     4    1
    39    38    31   ar
    40    12    13    1
    41    36    40    1
    42    20    22    1
    43    20    23    1
@<TRIPOS>MOLECULE
*****
 40 43 0 0 0
SMALL
GASTEIGER

@<TRIPOS>ATOM
      1 CA        -13.1409   -3.0677   18.5794 C.3     1  UNL1        0.1786
      2 C         -12.3847   -2.0907   17.7287 C.2     1  UNL1        0.2505
      3 O         -11.1697   -2.1659   16.8521 O.2     1  UNL1       -0.2726
      4 N         -13.3467   -1.0075   18.1175 N.am    1  UNL1       -0.2468
      5 CA        -13.8016    0.4190   18.0290 C.2     1  UNL1        0.0623
      6 C         -15.0128    0.8686   18.7911 C.2     1  UNL1       -0.0073
      7 C         -15.7690   -0.1084   19.6417 C.3     1  UNL1        0.0833
      8 S         -15.3141   -1.5349   19.7303 S.3     1  UNL1       -0.1142
      9 C         -14.1029   -1.9845   18.9682 C.3     1  UNL1        0.1548
     10 C         -13.8541   -5.5385   18.2101 C.2     1  UNL1        0.2687
     11 O         -14.8585   -5.0958   17.1876 O.2     1  UNL1       -0.2683
     12 N         -12.9954   -4.5245   18.9059 N.am    1  UNL1       -0.2914
     13 H         -12.3362   -4.8151   19.5770 H       1  UNL1        0.1503
     14 N         -12.3596   -7.6477   18.4705 N.2     1  UNL1       -0.0767
     15 C         -13.7087   -6.9953   18.5366 C.2     1  UNL1        0.1904
     16 C         -14.9124   -7.7997   18.9292 C.ar    1  UNL1        0.1150
     17 C         -16.1456   -7.2711   19.6000 C.ar    1  UNL1        0.0590
     18 S         -17.0895   -8.4186   19.8053 S.2     1  UNL1       -0.0514
     19 C         -16.4398   -9.6563   19.2614 C.ar    1  UNL1        0.1568
     20 N         -17.0317  -11.0346   19.2593 N.pl3   1  UNL1       -0.3375
     21 N         -15.0942   -9.2738   18.7199 N.ar    1  UNL1       -0.2227
     22 H         -17.9268  -11.1865   19.6399 H       1  UNL1        0.1442
     23 H         -16.5250  -11.7874   18.8774 H       1  UNL1        0.1442
     24 C          -9.8774   -6.9813   18.8500 C.3     1  UNL1        0.2885
     25 O         -11.1560   -6.8433   18.0779 O.2     1  UNL1       -0.3729
     26 C         -13.0454    1.3960   17.1783 C.2     1  UNL1        0.0860
     27 O         -13.7053    2.0180   15.9835 O.co2   1  UNL1       -0.5433
     28 OXT       -11.6293    1.7510   17.5224 O.co2   1  UNL1       -0.5433
     29 C         -15.4678    2.2952   18.7025 C.3     1  UNL1        0.0892
     30 S         -16.5049    2.8122   19.6551 S.3     1  UNL1       -0.0713
     31 C         -16.0856    3.4531   20.9448 C.ar    1  UNL1        0.1905
     32 N         -14.9319    4.4116   20.9657 N.ar    1  UNL1       -0.1790
     33 C         -14.5127    5.0525   22.2555 C.ar    1  UNL1        0.3356
     34 O         -13.3590    6.0110   22.2764 O.2     1  UNL1       -0.2599
     35 C         -15.2470    4.7350   23.5242 C.ar    1  UNL1        0.2980
     36 O         -14.8277    5.3759   24.8139 O.3     1  UNL1       -0.4878
     37 N         -16.4006    3.7765   23.5033 N.ar    1  UNL1       -0.1253
     38 N         -16.8199    3.1356   22.2136 N.ar    1  UNL1       -0.2240
     39 C         -17.9736    2.1771   22.1927 C.3     1  UNL1        0.1560
     40 H         -14.1071    5.9746   24.8270 H       1  UNL1        0.2939
@<TRIPOS>UNITY_ATOM_ATTR
27 1
charge -1
@<TRIPOS>BOND
     1    24    25    1
     2    25    14    1
     3    14    15    2
     4    15    10    1
     5    10    11    2
     6    10    12   am
     7     1    12    1
     8     1     2    1
     9     2     3    2
    10     2     4   am
    11     4     5    1
    12     5    26    1
    13    26    27   ar
    14    26    28   ar
    15     5     6    2
    16     6    29    1
    17    29    30    1
    18    30    31    1
    19    31    32   ar
    20    32    33   ar
    21    33    34    2
    22    33    35   ar
    23    35    36    1
    24    35    37   ar
    25    37    38   ar
    26    38    39    1
    27     6     7    1
    28     7     8    1
    29     9     8    1
    30    15    16    1
    31    16    17   ar
    32    17    18   ar
    33    18    19   ar
    34    19    20    1
    35    19    21   ar
    36     9     1    1
    37    21    16   ar
    38     9     4    1
    39    38    31   ar
    40    12    13    1
    41    36    40    1
    42    20    22    1
    43    20    23    1
@<TRIPOS>MOLECULE
*****
 40 43 0 0 0
SMALL
GASTEIGER

@<TRIPOS>ATOM
      1 CA         -0.0075    3.2964   19.0899 C.3     1  UNL1        0.1786
      2 C          -1.0453    3.6451   18.0646 C.2     1  UNL1        0.2505
      3 O          -1.0501    3.8095   16.5736 O.2     1  UNL1       -0.2726
      4 N          -2.0764    3.7615   19.1478 N.am    1  UNL1       -0.2468
      5 CA         -3.4882    4.0366   19.5732 C.2     1  UNL1        0.0623
      6 C          -3.8622    3.9630   21.0240 C.2     1  UNL1       -0.0073
      7 C          -2.8244    3.6142   22.0493 C.3     1  UNL1        0.0833
      8 S          -1.4125    3.3391   21.6238 S.3     1  UNL1       -0.1142
      9 C          -1.0386    3.4127   20.1731 C.3     1  UNL1        0.1548
     10 C           1.9068    1.6109   18.5952 C.2     1  UNL1        0.2687
     11 O           0.8952    0.5831   18.1824 O.2     1  UNL1       -0.2683
     12 N           1.4555    2.9675   19.0489 N.am    1  UNL1       -0.2914
     13 H           2.1194    3.6420   19.3199 H       1  UNL1        0.1503
     14 N           4.3625    2.3283   18.1425 N.2     1  UNL1       -0.0767
     15 C           3.3697    1.2820   18.5543 C.2     1  UNL1        0.1904
     16 C           3.8398   -0.0933   18.9250 C.ar    1  UNL1        0.1150
     17 C           4.3446   -0.5193   20.2718 C.ar    1  UNL1        0.0590
     18 S           4.7044   -1.9734   20.1933 S.2     1  UNL1       -0.0514
     19 C           4.4221   -2.4461   18.7980 C.ar    1  UNL1        0.1568
     20 N           4.6364   -3.8366   18.2778 N.pl3   1  UNL1       -0.3375
     21 N           3.8877   -1.2841   18.0142 N.ar    1  UNL1       -0.2227
     22 H           4.9937   -4.5350   18.8726 H       1  UNL1        0.1442
     23 H           4.4199   -4.0508   17.3416 H       1  UNL1        0.1442
     24 C           4.4940    4.9063   18.4363 C.3     1  UNL1        0.2885
     25 O           3.8924    3.7036   17.7717 O.2     1  UNL1       -0.3729
     26 C          -4.5261    4.3854   18.5479 C.2     1  UNL1        0.0860
     27 O          -5.4000    3.3119   17.9702 O.co2   1  UNL1       -0.5433
     28 OXT        -4.6899    5.8076   18.1003 O.co2   1  UNL1       -0.5433
     29 C          -5.2741    4.2381   21.4494 C.3     1  UNL1        0.0892
     30 S          -5.7954    3.6652   22.7340 S.3     1  UNL1       -0.0713
     31 C          -6.5507    4.5376   23.6923 C.ar    1  UNL1        0.1905
     32 N          -7.8848    5.1012   23.3016 N.ar    1  UNL1       -0.1790
     33 C          -8.6401    5.9737   24.2600 C.ar    1  UNL1        0.3356
     34 O          -9.9742    6.5373   23.8694 O.2     1  UNL1       -0.2599
     35 C          -8.0614    6.2824   25.6090 C.ar    1  UNL1        0.2980
     36 O          -8.8167    7.1548   26.5673 O.3     1  UNL1       -0.4878
     37 N          -6.7273    5.7187   25.9996 N.ar    1  UNL1       -0.1253
     38 N          -5.9720    4.8464   25.0413 N.ar    1  UNL1       -0.2240
     39 C          -4.6380    4.2827   25.4320 C.3     1  UNL1        0.1560
     40 H          -9.6501    7.5069   26.3233 H       1  UNL1        0.2939
@<TRIPOS>UNITY_ATOM_ATTR
27 1
charge -1
@<TRIPOS>BOND
     1    24    25    1
     2    25    14    1
     3    14    15    2
     4    15    10    1
     5    10    11    2
     6    10    12   am
     7     1    12    1
     8     1     2    1
     9     2     3    2
    10     2     4   am
    11     4     5    1
    12     5    26    1
    13    26    27   ar
    14    26    28   ar
    15     5     6    2
    16     6    29    1
    17    29    30    1
    18    30    31    1
    19    31    32   ar
    20    32    33   ar
    21    33    34    2
    22    33    35   ar
    23    35    36    1
    24    35    37   ar
    25    37    38   ar
    26    38    39    1
    27     6     7    1
    28     7     8    1
    29     9     8    1
    30    15    16    1
    31    16    17   ar
    32    17    18   ar
    33    18    19   ar
    34    19    20    1
    35    19    21   ar
    36     9     1    1
    37    21    16   ar
    38     9     4    1
    39    38    31   ar
    40    12    13    1
    41    36    40    1
    42    20    22    1
    43    20    23    1
@<TRIPOS>MOLECULE
*****
 40 43 0 0 0
SMALL
GASTEIGER

@<TRIPOS>ATOM
      1 CA        -14.4385   -3.5735   17.7014 C.3     1  UNL1        0.1786
      2 C         -13.6406   -2.3879   17.2457 C.2     1  UNL1        0.2505
      3 O         -12.4251   -2.1935   16.3884 O.2     1  UNL1       -0.2726
      4 N         -14.5615   -1.4773   18.0023 N.am    1  UNL1       -0.2468
      5 CA        -14.9601   -0.0958   18.4297 C.2     1  UNL1        0.0623
      6 C         -16.1566    0.1000   19.3128 C.2     1  UNL1       -0.0073
      7 C         -16.9546   -1.0856   19.7685 C.3     1  UNL1        0.0833
      8 S         -16.5560   -2.4670   19.3411 S.3     1  UNL1       -0.1142
      9 C         -15.3595   -2.6629   18.4580 C.3     1  UNL1        0.1548
     10 C         -14.1824   -5.9735   18.6629 C.2     1  UNL1        0.2687
     11 O         -14.1002   -5.4089   20.0502 O.2     1  UNL1       -0.2683
     12 N         -14.3516   -5.0559   17.4885 N.am    1  UNL1       -0.2914
     13 H         -14.4055   -5.4264   16.5780 H       1  UNL1        0.1503
     14 N         -12.8521   -8.0579   17.8656 N.2     1  UNL1       -0.0767
     15 C         -14.0954   -7.4557   18.4501 C.2     1  UNL1        0.1904
     16 C         -15.2517   -8.3359   18.8220 C.ar    1  UNL1        0.1150
     17 C         -16.5132   -7.8937   19.5025 C.ar    1  UNL1        0.0590
     18 S         -17.3907   -9.0972   19.6797 S.2     1  UNL1       -0.0514
     19 C         -16.6716  -10.2833   19.1087 C.ar    1  UNL1        0.1568
     20 N         -17.1844  -11.6925   19.0738 N.pl3   1  UNL1       -0.3375
     21 N         -15.3496   -9.8128   18.5786 N.ar    1  UNL1       -0.2227
     22 H         -18.0697  -11.9036   19.4492 H       1  UNL1        0.1442
     23 H         -16.6356  -12.4063   18.6756 H       1  UNL1        0.1442
     24 C         -10.5741   -6.9626   18.4661 C.3     1  UNL1        0.2885
     25 O         -11.6958   -7.1778   17.4938 O.2     1  UNL1       -0.3729
     26 C         -14.1621    1.0897   17.9740 C.2     1  UNL1        0.0860
     27 O         -12.7866    1.3243   18.5243 O.co2   1  UNL1       -0.5433
     28 OXT       -14.7397    2.0408   16.9681 O.co2   1  UNL1       -0.5433
     29 C         -16.5553    1.4815   19.7403 C.3     1  UNL1        0.0892
     30 S         -17.9822    1.7730   20.0994 S.3     1  UNL1       -0.0713
     31 C         -18.3164    2.3317   21.4507 C.ar    1  UNL1        0.1905
     32 N         -18.8755    1.4353   22.5156 N.ar    1  UNL1       -0.1790
     33 C         -19.2097    1.9941   23.8669 C.ar    1  UNL1        0.3356
     34 O         -19.7688    1.0977   24.9318 O.2     1  UNL1       -0.2599
     35 C         -18.9849    3.4492   24.1534 C.ar    1  UNL1        0.2980
     36 O         -19.3191    4.0079   25.5047 O.3     1  UNL1       -0.4878
     37 N         -18.4258    4.3456   23.0885 N.ar    1  UNL1       -0.1253
     38 N         -18.0916    3.7869   21.7372 N.ar    1  UNL1       -0.2240
     39 C         -17.5325    4.6832   20.6723 C.3     1  UNL1        0.1560
     40 H         -19.6683    3.4479   26.1699 H       1  UNL1        0.2939
@<TRIPOS>UNITY_ATOM_ATTR
27 1
charge -1
@<TRIPOS>BOND
     1    24    25    1
     2    25    14    1
     3    14    15    2
     4    15    10    1
     5    10    11    2
     6    10    12   am
     7     1    12    1
     8     1     2    1
     9     2     3    2
    10     2     4   am
    11     4     5    1
    12     5    26    1
    13    26    27   ar
    14    26    28   ar
    15     5     6    2
    16     6    29    1
    17    29    30    1
    18    30    31    1
    19    31    32   ar
    20    32    33   ar
    21    33    34    2
    22    33    35   ar
    23    35    36    1
    24    35    37   ar
    25    37    38   ar
    26    38    39    1
    27     6     7    1
    28     7     8    1
    29     9     8    1
    30    15    16    1
    31    16    17   ar
    32    17    18   ar
    33    18    19   ar
    34    19    20    1
    35    19    21   ar
    36     9     1    1
    37    21    16   ar
    38     9     4    1
    39    38    31   ar
    40    12    13    1
    41    36    40    1
    42    20    22    1
    43    20    23    1
@<TRIPOS>MOLECULE
*****
 40 43 0 0 0
SMALL
GASTEIGER

@<TRIPOS>ATOM
      1 CA         -0.3907    2.1528   21.0485 C.3     1  UNL1        0.1786
      2 C           0.4481    1.9246   22.2709 C.2     1  UNL1        0.2505
      3 O           0.1758    1.8413   23.7437 O.2     1  UNL1       -0.2726
      4 N           1.6719    1.8142   21.4106 N.am    1  UNL1       -0.2468
      5 CA          3.1511    1.6044   21.2768 C.2     1  UNL1        0.0623
      6 C           3.7915    1.6229   19.9205 C.2     1  UNL1       -0.0073
      7 C           2.9527    1.8511   18.6981 C.3     1  UNL1        0.0833
      8 S           1.4735    2.0608   18.8319 S.3     1  UNL1       -0.1142
      9 C           0.8331    2.0423   20.1881 C.3     1  UNL1        0.1548
     10 C          -2.2953    3.6587   20.1241 C.2     1  UNL1        0.2687
     11 O          -1.2829    4.6859   19.7117 O.2     1  UNL1       -0.2683
     12 N          -1.8492    2.3922   20.7924 N.am    1  UNL1       -0.2914
     13 H          -2.5137    1.7181   21.0630 H       1  UNL1        0.1503
     14 N          -4.2625    3.9925   18.4600 N.2     1  UNL1       -0.0767
     15 C          -3.7537    3.8982   19.8680 C.2     1  UNL1        0.1904
     16 C          -4.7035    4.0434   21.0199 C.ar    1  UNL1        0.1150
     17 C          -6.0510    4.7007   20.9741 C.ar    1  UNL1        0.0590
     18 S          -6.6528    4.6204   22.3457 S.2     1  UNL1       -0.0514
     19 C          -5.6772    3.9134   23.2392 C.ar    1  UNL1        0.1568
     20 N          -5.8721    3.6153   24.6964 N.pl3   1  UNL1       -0.3375
     21 N          -4.4724    3.5568   22.4198 N.ar    1  UNL1       -0.2227
     22 H          -6.7020    3.8911   25.1485 H       1  UNL1        0.1442
     23 H          -5.1701    3.1439   25.2006 H       1  UNL1        0.1442
     24 C          -3.8096    3.3440   15.9853 C.3     1  UNL1        0.2885
     25 O          -3.3127    3.8473   17.3081 O.2     1  UNL1       -0.3729
     26 C           3.9898    1.3763   22.4992 C.2     1  UNL1        0.0860
     27 O           4.7097    2.5256   23.1401 O.co2   1  UNL1       -0.5433
     28 OXT         4.1088   -0.0013   23.0808 O.co2   1  UNL1       -0.5433
     29 C           5.2707    1.4132   19.7866 C.3     1  UNL1        0.0892
     30 S           5.7951    0.2674   18.9728 S.3     1  UNL1       -0.0713
     31 C           5.3057   -1.1257   19.2364 C.ar    1  UNL1        0.1905
     32 N           5.7527   -1.8574   20.4672 N.ar    1  UNL1       -0.1790
     33 C           5.2633   -3.2506   20.7308 C.ar    1  UNL1        0.3356
     34 O           5.7102   -3.9823   21.9616 O.2     1  UNL1       -0.2599
     35 C           4.3269   -3.9121   19.7636 C.ar    1  UNL1        0.2980
     36 O           3.8375   -5.3053   20.0272 O.3     1  UNL1       -0.4878
     37 N           3.8799   -3.1805   18.5328 N.ar    1  UNL1       -0.1253
     38 N           4.3693   -1.7873   18.2692 N.ar    1  UNL1       -0.2240
     39 C           3.9223   -1.0557   17.0383 C.3     1  UNL1        0.1560
     40 H           4.1167   -5.7623   20.7960 H       1  UNL1        0.2939
@<TRIPOS>UNITY_ATOM_ATTR
27 1
charge -1
@<TRIPOS>BOND
     1    24    25    1
     2    25    14    1
     3    14    15    2
     4    15    10    1
     5    10    11    2
     6    10    12   am
     7     1    12    1
     8     1     2    1
     9     2     3    2
    10     2     4   am
    11     4     5    1
    12     5    26    1
    13    26    27   ar
    14    26    28   ar
    15     5     6    2
    16     6    29    1
    17    29    30    1
    18    30    31    1
    19    31    32   ar
    20    32    33   ar
    21    33    34    2
    22    33    35   ar
    23    35    36    1
    24    35    37   ar
    25    37    38   ar
    26    38    39    1
    27     6     7    1
    28     7     8    1
    29     9     8    1
    30    15    16    1
    31    16    17   ar
    32    17    18   ar
    33    18    19   ar
    34    19    20    1
    35    19    21   ar
    36     9     1    1
    37    21    16   ar
    38     9     4    1
    39    38    31   ar
    40    12    13    1
    41    36    40    1
    42    20    22    1
    43    20    23    1
@<TRIPOS>MOLECULE
*****
 40 43 0 0 0
SMALL
GASTEIGER

@<TRIPOS>ATOM
      1 CA          1.3300    1.1985   23.2869 C.3     1  UNL1        0.1786
      2 C           2.7957    1.4986   23.1789 C.2     1  UNL1        0.2505
      3 O           3.8581    1.9556   24.1342 O.2     1  UNL1       -0.2726
      4 N           2.7590    1.1524   21.7198 N.am    1  UNL1       -0.2468
      5 CA          3.4600    1.0026   20.4022 C.2     1  UNL1        0.0623
      6 C           2.6954    0.5527   19.1928 C.2     1  UNL1       -0.0073
      7 C           1.2297    0.2527   19.3009 C.3     1  UNL1        0.0833
      8 S           0.5286    0.4025   20.6184 S.3     1  UNL1       -0.1142
      9 C           1.2933    0.8523   21.8279 C.3     1  UNL1        0.1548
     10 C          -0.2438    2.5419   24.8580 C.2     1  UNL1        0.2687
     11 O           0.2033    3.8202   24.2129 O.2     1  UNL1       -0.2683
     12 N           0.3195    1.2312   24.3951 N.am    1  UNL1       -0.2914
     13 H           0.0261    0.3922   24.8186 H       1  UNL1        0.1503
     14 N          -0.9745    1.8646   27.2575 N.2     1  UNL1       -0.0767
     15 C          -1.2542    2.5746   25.9661 C.2     1  UNL1        0.1904
     16 C          -2.5444    3.3175   25.7829 C.ar    1  UNL1        0.1150
     17 C          -3.2596    3.5350   24.4824 C.ar    1  UNL1        0.0590
     18 S          -4.5031    4.3252   24.7637 S.2     1  UNL1       -0.0514
     19 C          -4.5566    4.5959   26.2381 C.ar    1  UNL1        0.1568
     20 N          -5.6319    5.3561   26.9565 N.pl3   1  UNL1       -0.3375
     21 N          -3.3461    3.9732   26.8680 N.ar    1  UNL1       -0.2227
     22 H          -6.3912    5.7292   26.4531 H       1  UNL1        0.1442
     23 H          -5.5783    5.4819   27.9315 H       1  UNL1        0.1442
     24 C           0.4758    0.1684   28.5876 C.3     1  UNL1        0.2885
     25 O           0.3157    1.1217   27.4407 O.2     1  UNL1       -0.3729
     26 C           4.9257    1.3027   20.2942 C.2     1  UNL1        0.0860
     27 O           5.3890    2.5220   19.5535 O.co2   1  UNL1       -0.5433
     28 OXT         5.9281    0.3834   20.9267 O.co2   1  UNL1       -0.5433
     29 C           3.3964    0.4029   17.8751 C.3     1  UNL1        0.0892
     30 S           3.7813   -0.9601   17.3811 S.3     1  UNL1       -0.0713
     31 C           4.5754   -1.8799   18.2604 C.ar    1  UNL1        0.1905
     32 N           3.8819   -2.9616   19.0345 N.ar    1  UNL1       -0.1790
     33 C           4.6761   -3.8815   19.9138 C.ar    1  UNL1        0.3356
     34 O           3.9826   -4.9631   20.6879 O.2     1  UNL1       -0.2599
     35 C           6.1636   -3.7197   20.0191 C.ar    1  UNL1        0.2980
     36 O           6.9576   -4.6395   20.8985 O.3     1  UNL1       -0.4878
     37 N           6.8570   -2.6380   19.2451 N.ar    1  UNL1       -0.1253
     38 N           6.0630   -1.7182   18.3658 N.ar    1  UNL1       -0.2240
     39 C           6.7564   -0.6365   17.5917 C.3     1  UNL1        0.1560
     40 H           6.5244   -5.3152   21.3820 H       1  UNL1        0.2939
@<TRIPOS>UNITY_ATOM_ATTR
27 1
charge -1
@<TRIPOS>BOND
     1    24    25    1
     2    25    14    1
     3    14    15    2
     4    15    10    1
     5    10    11    2
     6    10    12   am
     7     1    12    1
     8     1     2    1
     9     2     3    2
    10     2     4   am
    11     4     5    1
    12     5    26    1
    13    26    27   ar
    14    26    28   ar
    15     5     6    2
    16     6    29    1
    17    29    30    1
    18    30    31    1
    19    31    32   ar
    20    32    33   ar
    21    33    34    2
    22    33    35   ar
    23    35    36    1
    24    35    37   ar
    25    37    38   ar
    26    38    39    1
    27     6     7    1
    28     7     8    1
    29     9     8    1
    30    15    16    1
    31    16    17   ar
    32    17    18   ar
    33    18    19   ar
    34    19    20    1
    35    19    21   ar
    36     9     1    1
    37    21    16   ar
    38     9     4    1
    39    38    31   ar
    40    12    13    1
    41    36    40    1
    42    20    22    1
    43    20    23    1
@<TRIPOS>MOLECULE
*****
 40 43 0 0 0
SMALL
GASTEIGER

@<TRIPOS>ATOM
      1 CA        -15.0020   -1.0729   18.2680 C.3     1  UNL1        0.1786
      2 C         -14.6081    0.1690   17.5248 C.2     1  UNL1        0.2505
      3 O         -13.7873    0.4586   16.3030 O.2     1  UNL1       -0.2726
      4 N         -15.3748    1.0014   18.5093 N.am    1  UNL1       -0.2468
      5 CA        -15.8418    2.3432   18.9902 C.2     1  UNL1        0.0623
      6 C         -16.7027    2.4431   20.2145 C.2     1  UNL1       -0.0073
      7 C         -17.0967    1.2012   20.9577 C.3     1  UNL1        0.0833
      8 S         -16.6297   -0.1406   20.4767 S.3     1  UNL1       -0.1142
      9 C         -15.7687   -0.2405   19.2525 C.3     1  UNL1        0.1548
     10 C         -14.0372   -3.3065   19.1792 C.2     1  UNL1        0.2687
     11 O         -13.5995   -2.6066   20.4316 O.2     1  UNL1       -0.2683
     12 N         -14.7384   -2.5398   18.0974 N.am    1  UNL1       -0.2914
     13 H         -15.0257   -2.9992   17.2755 H       1  UNL1        0.1503
     14 N         -14.9199   -5.7285   18.8551 N.2     1  UNL1       -0.0767
     15 C         -13.7736   -4.7733   19.0086 C.2     1  UNL1        0.1904
     16 C         -12.3636   -5.2849   18.9917 C.ar    1  UNL1        0.1150
     17 C         -11.1216   -4.4452   18.9436 C.ar    1  UNL1        0.0590
     18 S          -9.9385   -5.3673   18.9420 S.2     1  UNL1       -0.0514
     19 C         -10.4493   -6.7768   18.9891 C.ar    1  UNL1        0.1568
     20 N          -9.6089   -8.0192   19.0030 N.pl3   1  UNL1       -0.3375
     21 N         -11.9482   -6.7259   19.0197 N.ar    1  UNL1       -0.2227
     22 H          -8.6271   -7.9497   18.9802 H       1  UNL1        0.1442
     23 H         -10.0391   -8.9042   19.0349 H       1  UNL1        0.1442
     24 C         -17.4479   -6.1140   19.3141 C.3     1  UNL1        0.2885
     25 O         -16.3299   -5.2169   18.8720 O.2     1  UNL1       -0.3729
     26 C         -15.4478    3.5851   18.2470 C.2     1  UNL1        0.0860
     27 O         -16.3828    4.1841   17.2385 O.co2   1  UNL1       -0.5433
     28 OXT       -14.1189    4.2281   18.5122 O.co2   1  UNL1       -0.5433
     29 C         -17.1698    3.7850   20.6955 C.3     1  UNL1        0.0892
     30 S         -17.6223    3.9569   22.1152 S.3     1  UNL1       -0.0713
     31 C         -16.6503    4.4146   23.1620 C.ar    1  UNL1        0.1905
     32 N         -15.1881    4.5040   22.8399 N.ar    1  UNL1       -0.1790
     33 C         -14.2161    4.9616   23.8868 C.ar    1  UNL1        0.3356
     34 O         -12.7538    5.0510   23.5647 O.2     1  UNL1       -0.2599
     35 C         -14.7064    5.3298   25.2557 C.ar    1  UNL1        0.2980
     36 O         -13.7344    5.7875   26.3025 O.3     1  UNL1       -0.4878
     37 N         -16.1687    5.2404   25.5778 N.ar    1  UNL1       -0.1253
     38 N         -17.1406    4.7828   24.5310 N.ar    1  UNL1       -0.2240
     39 C         -18.6029    4.6934   24.8531 C.3     1  UNL1        0.1560
     40 H         -12.8210    5.8433   26.1012 H       1  UNL1        0.2939
@<TRIPOS>UNITY_ATOM_ATTR
27 1
charge -1
@<TRIPOS>BOND
     1    24    25    1
     2    25    14    1
     3    14    15    2
     4    15    10    1
     5    10    11    2
     6    10    12   am
     7     1    12    1
     8     1     2    1
     9     2     3    2
    10     2     4   am
    11     4     5    1
    12     5    26    1
    13    26    27   ar
    14    26    28   ar
    15     5     6    2
    16     6    29    1
    17    29    30    1
    18    30    31    1
    19    31    32   ar
    20    32    33   ar
    21    33    34    2
    22    33    35   ar
    23    35    36    1
    24    35    37   ar
    25    37    38   ar
    26    38    39    1
    27     6     7    1
    28     7     8    1
    29     9     8    1
    30    15    16    1
    31    16    17   ar
    32    17    18   ar
    33    18    19   ar
    34    19    20    1
    35    19    21   ar
    36     9     1    1
    37    21    16   ar
    38     9     4    1
    39    38    31   ar
    40    12    13    1
    41    36    40    1
    42    20    22    1
    43    20    23    1
@<TRIPOS>MOLECULE
*****
 40 43 0 0 0
SMALL
GASTEIGER

@<TRIPOS>ATOM
      1 CA          2.4327    0.5858   20.5195 C.3     1  UNL1        0.1786
      2 C           3.0363   -0.3423   19.5075 C.2     1  UNL1        0.2505
      3 O           3.0698   -0.4008   18.0090 O.2     1  UNL1       -0.2726
      4 N           3.5926   -1.1878   20.6147 N.am    1  UNL1       -0.2468
      5 CA          4.3761   -2.3840   21.0675 C.2     1  UNL1        0.0623
      6 C           4.5560   -2.6521   22.5323 C.2     1  UNL1       -0.0073
      7 C           3.9524   -1.7239   23.5443 C.3     1  UNL1        0.0833
      8 S           3.1689   -0.5277   23.0915 S.3     1  UNL1       -0.1142
      9 C           2.9890   -0.2596   21.6267 C.3     1  UNL1        0.1548
     10 C           0.1153    1.7563   20.4233 C.2     1  UNL1        0.2687
     11 O          -0.5620    0.4185   20.4616 O.2     1  UNL1       -0.2683
     12 N           1.6126    1.8400   20.4522 N.am    1  UNL1       -0.2914
     13 H           2.0571    2.7181   20.4271 H       1  UNL1        0.1503
     14 N          -0.4568    4.0114   19.2668 N.2     1  UNL1       -0.0767
     15 C          -0.7049    3.0104   20.3560 C.2     1  UNL1        0.1904
     16 C          -1.7733    3.2635   21.3780 C.ar    1  UNL1        0.1150
     17 C          -1.5736    3.8931   22.7249 C.ar    1  UNL1        0.0590
     18 S          -2.9058    3.9502   23.4119 S.2     1  UNL1       -0.0514
     19 C          -3.9287    3.3559   22.4897 C.ar    1  UNL1        0.1568
     20 N          -5.3944    3.2114   22.7745 N.pl3   1  UNL1       -0.3375
     21 N          -3.2288    2.9315   21.2327 N.ar    1  UNL1       -0.2227
     22 H          -5.7619    3.5218   23.6335 H       1  UNL1        0.1442
     23 H          -5.9888    2.8062   22.1024 H       1  UNL1        0.1442
     24 C           1.8167    4.6494   18.1831 C.3     1  UNL1        0.2885
     25 O           0.6116    3.7583   18.2448 O.2     1  UNL1       -0.3729
     26 C           4.9797   -3.3122   20.0554 C.2     1  UNL1        0.0860
     27 O           6.4132   -3.1460   19.6464 O.co2   1  UNL1       -0.5433
     28 OXT         4.1498   -4.4065   19.4525 O.co2   1  UNL1       -0.5433
     29 C           5.3396   -3.8484   22.9851 C.3     1  UNL1        0.0892
     30 S           6.5980   -3.6635   23.7803 S.3     1  UNL1       -0.0713
     31 C           6.8497   -4.5091   24.9934 C.ar    1  UNL1        0.1905
     32 N           7.2611   -5.9430   24.8359 N.ar    1  UNL1       -0.1790
     33 C           7.5127   -6.7886   26.0491 C.ar    1  UNL1        0.3356
     34 O           7.9241   -8.2224   25.8916 O.2     1  UNL1       -0.2599
     35 C           7.3530   -6.2003   27.4196 C.ar    1  UNL1        0.2980
     36 O           7.6047   -7.0459   28.6327 O.3     1  UNL1       -0.4878
     37 N           6.9416   -4.7664   27.5770 N.ar    1  UNL1       -0.1253
     38 N           6.6899   -3.9209   26.3640 N.ar    1  UNL1       -0.2240
     39 C           6.2785   -2.4870   26.5214 C.3     1  UNL1        0.1560
     40 H           7.8617   -7.9416   28.5343 H       1  UNL1        0.2939
@<TRIPOS>UNITY_ATOM_ATTR
27 1
charge -1
@<TRIPOS>BOND
     1    24    25    1
     2    25    14    1
     3    14    15    2
     4    15    10    1
     5    10    11    2
     6    10    12   am
     7     1    12    1
     8     1     2    1
     9     2     3    2
    10     2     4   am
    11     4     5    1
    12     5    26    1
    13    26    27   ar
    14    26    28   ar
    15     5     6    2
    16     6    29    1
    17    29    30    1
    18    30    31    1
    19    31    32   ar
    20    32    33   ar
    21    33    34    2
    22    33    35   ar
    23    35    36    1
    24    35    37   ar
    25    37    38   ar
    26    38    39    1
    27     6     7    1
    28     7     8    1
    29     9     8    1
    30    15    16    1
    31    16    17   ar
    32    17    18   ar
    33    18    19   ar
    34    19    20    1
    35    19    21   ar
    36     9     1    1
    37    21    16   ar
    38     9     4    1
    39    38    31   ar
    40    12    13    1
    41    36    40    1
    42    20    22    1
    43    20    23    1
