@<TRIPOS>MOLECULE
*****
 29 32 0 0 0
SMALL
GASTEIGER

@<TRIPOS>ATOM
      1 C          -9.3687  -19.0837   22.0034 C.ar    1  UNL1        0.1311
      2 C          -8.4506  -19.8605   22.8999 C.ar    1  UNL1        0.0339
      3 C          -7.1732  -20.4274   22.3552 C.ar    1  UNL1        0.0027
      4 C          -6.8138  -20.2175   20.9141 C.ar    1  UNL1        0.0283
      5 C          -7.7319  -19.4408   20.0176 C.ar    1  UNL1        0.2196
      6 F          -7.3725  -19.2309   18.5765 F       1  UNL1       -0.1835
      7 N          -9.0094  -18.8739   20.5622 N.ar    1  UNL1       -0.2035
      8 N         -10.6462  -18.5167   22.5479 N.pl3   1  UNL1       -0.3132
      9 H         -11.4656  -19.0625   22.5496 H       1  UNL1        0.1485
     10 C         -10.6753  -17.1184   23.0900 C.3     1  UNL1        0.1348
     11 C          -6.7026  -15.4336   27.2587 C.3     1  UNL1        0.0327
     12 C          -7.6958  -15.8548   26.2165 C.ar    1  UNL1       -0.0027
     13 C          -8.6383  -16.9884   26.4934 C.ar    1  UNL1       -0.0015
     14 C          -9.6315  -17.4095   25.4512 C.ar    1  UNL1        0.0161
     15 C          -9.6821  -16.6971   24.1321 C.ar    1  UNL1        0.0788
     16 N          -8.7396  -15.5636   23.8553 N.ar    1  UNL1       -0.2468
     17 C          -7.7464  -15.1424   24.8975 C.ar    1  UNL1        0.0942
     18 C          -5.5363  -20.7845   20.3694 C.3     1  UNL1        0.0582
     19 C          -4.3207  -19.9139   20.2488 C.ar    1  UNL1        0.0044
     20 C          -3.3122  -19.9566   19.1393 C.ar    1  UNL1        0.0966
     21 N          -2.2685  -18.9169   19.4213 N.ar    1  UNL1       -0.2273
     22 C          -2.6319  -18.2316   20.7052 C.ar    1  UNL1        0.1402
     23 N          -1.9718  -17.1261   21.4747 N.ar    1  UNL1       -0.3377
     24 C          -2.5800  -16.6369   22.7555 C.ar    1  UNL1        0.0691
     25 C          -3.8483  -17.2531   23.2669 C.ar    1  UNL1       -0.0047
     26 C          -4.4565  -16.7638   24.5479 C.3     1  UNL1        0.0326
     27 C          -4.5085  -18.3586   22.4975 C.ar    1  UNL1       -0.0001
     28 C          -3.9003  -18.8478   21.2166 C.ar    1  UNL1        0.0315
     29 H          -1.1393  -16.7217   21.1390 H       1  UNL1        0.1674
@<TRIPOS>BOND
     1    11    12    1
     2    12    13   ar
     3    13    14   ar
     4    14    15   ar
     5    15    10    1
     6    10     8    1
     7     8     1    1
     8     1     2   ar
     9     2     3   ar
    10     3     4   ar
    11     4    18    1
    12    18    19    1
    13    19    20   ar
    14    20    21   ar
    15    21    22   ar
    16    22    23   ar
    17    23    24   ar
    18    24    25   ar
    19    25    26    1
    20    25    27   ar
    21    27    28   ar
    22     4     5   ar
    23     5     6    1
    24     5     7   ar
    25    15    16   ar
    26    16    17   ar
    27    17    12   ar
    28     7     1   ar
    29    28    19   ar
    30    28    22    1
    31     8     9    1
    32    23    29    1
@<TRIPOS>MOLECULE
*****
 29 32 0 0 0
SMALL
GASTEIGER

@<TRIPOS>ATOM
      1 C          -8.5869  -15.9161   26.1663 C.ar    1  UNL1        0.1311
      2 C          -8.8944  -17.3031   26.6477 C.ar    1  UNL1        0.0339
      3 C          -9.6694  -18.2451   25.7749 C.ar    1  UNL1        0.0027
      4 C         -10.1369  -17.8003   24.4208 C.ar    1  UNL1        0.0283
      5 C          -9.8293  -16.4134   23.9394 C.ar    1  UNL1        0.2196
      6 F         -10.2968  -15.9686   22.5853 F       1  UNL1       -0.1835
      7 N          -9.0543  -15.4713   24.8122 N.ar    1  UNL1       -0.2035
      8 N          -7.8119  -14.9739   27.0390 N.pl3   1  UNL1       -0.3132
      9 H          -8.2833  -14.2813   27.5560 H       1  UNL1        0.1485
     10 C          -6.3185  -15.0869   27.1241 C.3     1  UNL1        0.1348
     11 C          -3.1878  -17.0858   22.4122 C.3     1  UNL1        0.0327
     12 C          -3.9705  -16.5862   23.5902 C.ar    1  UNL1       -0.0027
     13 C          -3.9523  -17.3496   24.8812 C.ar    1  UNL1       -0.0015
     14 C          -4.7350  -16.8499   26.0592 C.ar    1  UNL1        0.0161
     15 C          -5.5359  -15.5866   25.9461 C.ar    1  UNL1        0.0788
     16 N          -5.5541  -14.8231   24.6551 N.ar    1  UNL1       -0.2468
     17 C          -4.7714  -15.3229   23.4771 C.ar    1  UNL1        0.0942
     18 C         -10.9120  -18.7426   23.5480 C.3     1  UNL1        0.0582
     19 C         -10.5572  -18.8849   22.0975 C.ar    1  UNL1        0.0044
     20 C         -11.5087  -18.7799   20.9427 C.ar    1  UNL1        0.0966
     21 N         -10.7281  -18.9873   19.6787 N.ar    1  UNL1       -0.2273
     22 C          -9.2942  -19.2204   20.0523 C.ar    1  UNL1        0.1402
     23 N          -8.0711  -19.4821   19.2244 N.ar    1  UNL1       -0.3377
     24 C          -6.7423  -19.6806   19.8915 C.ar    1  UNL1        0.0691
     25 C          -6.6367  -19.6173   21.3864 C.ar    1  UNL1       -0.0047
     26 C          -5.3078  -19.8157   22.0534 C.3     1  UNL1        0.0326
     27 C          -7.8598  -19.3555   22.2143 C.ar    1  UNL1       -0.0001
     28 C          -9.1885  -19.1571   21.5473 C.ar    1  UNL1        0.0315
     29 H          -8.1404  -19.5237   18.2433 H       1  UNL1        0.1674
@<TRIPOS>BOND
     1    11    12    1
     2    12    13   ar
     3    13    14   ar
     4    14    15   ar
     5    15    10    1
     6    10     8    1
     7     8     1    1
     8     1     2   ar
     9     2     3   ar
    10     3     4   ar
    11     4    18    1
    12    18    19    1
    13    19    20   ar
    14    20    21   ar
    15    21    22   ar
    16    22    23   ar
    17    23    24   ar
    18    24    25   ar
    19    25    26    1
    20    25    27   ar
    21    27    28   ar
    22     4     5   ar
    23     5     6    1
    24     5     7   ar
    25    15    16   ar
    26    16    17   ar
    27    17    12   ar
    28     7     1   ar
    29    28    19   ar
    30    28    22    1
    31     8     9    1
    32    23    29    1
@<TRIPOS>MOLECULE
*****
 29 32 0 0 0
SMALL
GASTEIGER

@<TRIPOS>ATOM
      1 C          -6.1592  -15.9137   24.3663 C.ar    1  UNL1        0.1311
      2 C          -7.1847  -16.4358   25.3284 C.ar    1  UNL1        0.0339
      3 C          -8.6375  -16.4239   24.9554 C.ar    1  UNL1        0.0027
      4 C          -9.0648  -15.8901   23.6204 C.ar    1  UNL1        0.0283
      5 C          -8.0393  -15.3680   22.6582 C.ar    1  UNL1        0.2196
      6 F          -8.4666  -14.8341   21.3232 F       1  UNL1       -0.1835
      7 N          -6.5865  -15.3798   23.0312 N.ar    1  UNL1       -0.2035
      8 N          -4.7063  -15.9255   24.7392 N.pl3   1  UNL1       -0.3132
      9 H          -4.3030  -15.1388   25.1725 H       1  UNL1        0.1485
     10 C          -3.8680  -17.1358   24.4520 C.3     1  UNL1        0.1348
     11 C          -2.0612  -18.2719   18.8446 C.3     1  UNL1        0.0327
     12 C          -2.5129  -17.9879   20.2464 C.ar    1  UNL1       -0.0027
     13 C          -3.3327  -19.0004   20.9899 C.ar    1  UNL1       -0.0015
     14 C          -3.7844  -18.7163   22.3918 C.ar    1  UNL1        0.0161
     15 C          -3.4163  -17.4197   23.0501 C.ar    1  UNL1        0.0788
     16 N          -2.5965  -16.4073   22.3067 N.ar    1  UNL1       -0.2468
     17 C          -2.1448  -16.6913   20.9048 C.ar    1  UNL1        0.0942
     18 C         -10.5178  -15.8783   23.2474 C.3     1  UNL1        0.0582
     19 C         -10.9827  -16.6030   22.0192 C.ar    1  UNL1        0.0044
     20 C         -12.2941  -16.4010   21.3196 C.ar    1  UNL1        0.0966
     21 N         -12.3397  -17.3302   20.1430 N.ar    1  UNL1       -0.2273
     22 C         -11.0565  -18.1065   20.1153 C.ar    1  UNL1        0.1402
     23 N         -10.5434  -19.1645   19.1841 N.ar    1  UNL1       -0.3377
     24 C          -9.1916  -19.7732   19.4125 C.ar    1  UNL1        0.0691
     25 C          -8.3529  -19.3237   20.5720 C.ar    1  UNL1       -0.0047
     26 C          -7.0011  -19.9324   20.8004 C.3     1  UNL1        0.0326
     27 C          -8.8660  -18.2657   21.5033 C.ar    1  UNL1       -0.0001
     28 C         -10.2178  -17.6571   21.2749 C.ar    1  UNL1        0.0315
     29 H         -11.0939  -19.4595   18.4230 H       1  UNL1        0.1674
@<TRIPOS>BOND
     1    11    12    1
     2    12    13   ar
     3    13    14   ar
     4    14    15   ar
     5    15    10    1
     6    10     8    1
     7     8     1    1
     8     1     2   ar
     9     2     3   ar
    10     3     4   ar
    11     4    18    1
    12    18    19    1
    13    19    20   ar
    14    20    21   ar
    15    21    22   ar
    16    22    23   ar
    17    23    24   ar
    18    24    25   ar
    19    25    26    1
    20    25    27   ar
    21    27    28   ar
    22     4     5   ar
    23     5     6    1
    24     5     7   ar
    25    15    16   ar
    26    16    17   ar
    27    17    12   ar
    28     7     1   ar
    29    28    19   ar
    30    28    22    1
    31     8     9    1
    32    23    29    1
@<TRIPOS>MOLECULE
*****
 29 32 0 0 0
SMALL
GASTEIGER

@<TRIPOS>ATOM
      1 C          -6.1357  -15.4989   25.2118 C.ar    1  UNL1        0.1311
      2 C          -5.7386  -15.2126   23.7939 C.ar    1  UNL1        0.0339
      3 C          -4.5186  -15.8621   23.2111 C.ar    1  UNL1        0.0027
      4 C          -3.6957  -16.7978   24.0461 C.ar    1  UNL1        0.0283
      5 C          -4.0928  -17.0841   25.4640 C.ar    1  UNL1        0.2196
      6 F          -3.2699  -18.0198   26.2990 F       1  UNL1       -0.1835
      7 N          -5.3128  -16.4346   26.0468 N.ar    1  UNL1       -0.2035
      8 N          -7.3557  -14.8495   25.7947 N.pl3   1  UNL1       -0.3132
      9 H          -7.4179  -13.8679   25.8375 H       1  UNL1        0.1485
     10 C          -8.4810  -15.6955   26.3123 C.3     1  UNL1        0.1348
     11 C         -11.0651  -19.7637   22.7386 C.3     1  UNL1        0.0327
     12 C         -10.4191  -18.7466   23.6320 C.ar    1  UNL1       -0.0027
     13 C         -10.1749  -17.3544   23.1298 C.ar    1  UNL1       -0.0015
     14 C          -9.5288  -16.3374   24.0233 C.ar    1  UNL1        0.0161
     15 C          -9.1271  -16.7126   25.4189 C.ar    1  UNL1        0.0788
     16 N          -9.3713  -18.1048   25.9211 N.ar    1  UNL1       -0.2468
     17 C         -10.0173  -19.1218   25.0276 C.ar    1  UNL1        0.0942
     18 C          -2.4756  -17.4473   23.4632 C.3     1  UNL1        0.0582
     19 C          -2.5824  -18.2430   22.1962 C.ar    1  UNL1        0.0044
     20 C          -1.5186  -18.3776   21.1473 C.ar    1  UNL1        0.0966
     21 N          -2.0505  -19.2616   20.0584 N.ar    1  UNL1       -0.2273
     22 C          -3.4431  -19.6733   20.4344 C.ar    1  UNL1        0.1402
     23 N          -4.4543  -20.5401   19.7443 N.ar    1  UNL1       -0.3377
     24 C          -5.7942  -20.7772   20.3755 C.ar    1  UNL1        0.0691
     25 C          -6.1229  -20.1477   21.6967 C.ar    1  UNL1       -0.0047
     26 C          -7.4628  -20.3849   22.3279 C.3     1  UNL1        0.0326
     27 C          -5.1117  -19.2809   22.3867 C.ar    1  UNL1       -0.0001
     28 C          -3.7718  -19.0437   21.7556 C.ar    1  UNL1        0.0315
     29 H          -4.2385  -20.9533   18.8772 H       1  UNL1        0.1674
@<TRIPOS>BOND
     1    11    12    1
     2    12    13   ar
     3    13    14   ar
     4    14    15   ar
     5    15    10    1
     6    10     8    1
     7     8     1    1
     8     1     2   ar
     9     2     3   ar
    10     3     4   ar
    11     4    18    1
    12    18    19    1
    13    19    20   ar
    14    20    21   ar
    15    21    22   ar
    16    22    23   ar
    17    23    24   ar
    18    24    25   ar
    19    25    26    1
    20    25    27   ar
    21    27    28   ar
    22     4     5   ar
    23     5     6    1
    24     5     7   ar
    25    15    16   ar
    26    16    17   ar
    27    17    12   ar
    28     7     1   ar
    29    28    19   ar
    30    28    22    1
    31     8     9    1
    32    23    29    1
@<TRIPOS>MOLECULE
*****
 29 32 0 0 0
SMALL
GASTEIGER

@<TRIPOS>ATOM
      1 C          -6.2060  -16.2806   23.7732 C.ar    1  UNL1        0.1311
      2 C          -7.1422  -15.5563   24.6945 C.ar    1  UNL1        0.0339
      3 C          -8.5750  -15.9877   24.7986 C.ar    1  UNL1        0.0027
      4 C          -9.0716  -17.1434   23.9815 C.ar    1  UNL1        0.0283
      5 C          -8.1354  -17.8677   23.0601 C.ar    1  UNL1        0.2196
      6 F          -8.6320  -19.0234   22.2430 F       1  UNL1       -0.1835
      7 N          -6.7026  -17.4362   22.9560 N.ar    1  UNL1       -0.2035
      8 N          -4.7731  -15.8492   23.6690 N.pl3   1  UNL1       -0.3132
      9 H          -4.5432  -14.8926   23.7052 H       1  UNL1        0.1485
     10 C          -3.6906  -16.8752   23.5098 C.3     1  UNL1        0.1348
     11 C          -1.4099  -18.0118   18.0779 C.3     1  UNL1        0.0327
     12 C          -1.9801  -17.7276   19.4359 C.ar    1  UNL1       -0.0027
     13 C          -1.3562  -16.6775   20.3065 C.ar    1  UNL1       -0.0015
     14 C          -1.9264  -16.3934   21.6645 C.ar    1  UNL1        0.0161
     15 C          -3.1204  -17.1594   22.1518 C.ar    1  UNL1        0.0788
     16 N          -3.7443  -18.2096   21.2812 N.ar    1  UNL1       -0.2468
     17 C          -3.1741  -18.4937   19.9232 C.ar    1  UNL1        0.0942
     18 C         -10.5045  -17.5748   24.0856 C.3     1  UNL1        0.0582
     19 C         -11.4052  -17.4797   22.8899 C.ar    1  UNL1        0.0044
     20 C         -12.6777  -18.2461   22.6814 C.ar    1  UNL1        0.0966
     21 N         -13.2504  -17.8415   21.3554 N.ar    1  UNL1       -0.2273
     22 C         -12.3320  -16.8250   20.7445 C.ar    1  UNL1        0.1402
     23 N         -12.3868  -16.0741   19.4471 N.ar    1  UNL1       -0.3377
     24 C         -11.3012  -15.0996   19.0982 C.ar    1  UNL1        0.0691
     25 C         -10.1608  -14.8760   20.0466 C.ar    1  UNL1       -0.0047
     26 C          -9.0752  -13.9015   19.6976 C.3     1  UNL1        0.0326
     27 C         -10.1060  -15.6269   21.3439 C.ar    1  UNL1       -0.0001
     28 C         -11.1916  -16.6014   21.6929 C.ar    1  UNL1        0.0315
     29 H         -13.1353  -16.2209   18.8247 H       1  UNL1        0.1674
@<TRIPOS>BOND
     1    11    12    1
     2    12    13   ar
     3    13    14   ar
     4    14    15   ar
     5    15    10    1
     6    10     8    1
     7     8     1    1
     8     1     2   ar
     9     2     3   ar
    10     3     4   ar
    11     4    18    1
    12    18    19    1
    13    19    20   ar
    14    20    21   ar
    15    21    22   ar
    16    22    23   ar
    17    23    24   ar
    18    24    25   ar
    19    25    26    1
    20    25    27   ar
    21    27    28   ar
    22     4     5   ar
    23     5     6    1
    24     5     7   ar
    25    15    16   ar
    26    16    17   ar
    27    17    12   ar
    28     7     1   ar
    29    28    19   ar
    30    28    22    1
    31     8     9    1
    32    23    29    1
@<TRIPOS>MOLECULE
*****
 29 32 0 0 0
SMALL
GASTEIGER

@<TRIPOS>ATOM
      1 C          -5.2719  -19.1056   22.2536 C.ar    1  UNL1        0.1311
      2 C          -5.5986  -20.2717   21.3685 C.ar    1  UNL1        0.0339
      3 C          -6.8524  -20.2603   20.5453 C.ar    1  UNL1        0.0027
      4 C          -7.7795  -19.0827   20.6071 C.ar    1  UNL1        0.0283
      5 C          -7.4529  -17.9166   21.4922 C.ar    1  UNL1        0.2196
      6 F          -8.3800  -16.7390   21.5540 F       1  UNL1       -0.1835
      7 N          -6.1990  -17.9280   22.3154 N.ar    1  UNL1       -0.2035
      8 N          -4.0181  -19.1170   23.0769 N.pl3   1  UNL1       -0.3132
      9 H          -3.9516  -19.7043   23.8642 H       1  UNL1        0.1485
     10 C          -2.8657  -18.2336   22.7007 C.3     1  UNL1        0.1348
     11 C          -1.2392  -17.7108   16.9491 C.3     1  UNL1        0.0327
     12 C          -1.6458  -17.8415   18.3870 C.ar    1  UNL1       -0.0027
     13 C          -0.6047  -18.0652   19.4435 C.ar    1  UNL1       -0.0015
     14 C          -1.0114  -18.1959   20.8814 C.ar    1  UNL1        0.0161
     15 C          -2.4591  -18.1029   21.2628 C.ar    1  UNL1        0.0788
     16 N          -3.5001  -17.8791   20.2063 N.ar    1  UNL1       -0.2468
     17 C          -3.0935  -17.7485   18.7684 C.ar    1  UNL1        0.0942
     18 C          -9.0334  -19.0713   19.7837 C.3     1  UNL1        0.0582
     19 C         -10.2995  -18.5035   20.3534 C.ar    1  UNL1        0.0044
     20 C         -11.2876  -17.6439   19.6220 C.ar    1  UNL1        0.0966
     21 N         -12.3986  -17.3047   20.5711 N.ar    1  UNL1       -0.2273
     22 C         -12.0971  -17.9546   21.8889 C.ar    1  UNL1        0.1402
     23 N         -12.8363  -17.9675   23.1941 N.ar    1  UNL1       -0.3377
     24 C         -12.2782  -18.7213   24.3646 C.ar    1  UNL1        0.0691
     25 C         -10.9809  -19.4621   24.2301 C.ar    1  UNL1       -0.0047
     26 C         -10.4228  -20.2159   25.4008 C.3     1  UNL1        0.0326
     27 C         -10.2417  -19.4493   22.9250 C.ar    1  UNL1       -0.0001
     28 C         -10.7998  -18.6955   21.7544 C.ar    1  UNL1        0.0315
     29 H         -13.6878  -17.4813   23.2824 H       1  UNL1        0.1674
@<TRIPOS>BOND
     1    11    12    1
     2    12    13   ar
     3    13    14   ar
     4    14    15   ar
     5    15    10    1
     6    10     8    1
     7     8     1    1
     8     1     2   ar
     9     2     3   ar
    10     3     4   ar
    11     4    18    1
    12    18    19    1
    13    19    20   ar
    14    20    21   ar
    15    21    22   ar
    16    22    23   ar
    17    23    24   ar
    18    24    25   ar
    19    25    26    1
    20    25    27   ar
    21    27    28   ar
    22     4     5   ar
    23     5     6    1
    24     5     7   ar
    25    15    16   ar
    26    16    17   ar
    27    17    12   ar
    28     7     1   ar
    29    28    19   ar
    30    28    22    1
    31     8     9    1
    32    23    29    1
@<TRIPOS>MOLECULE
*****
 29 32 0 0 0
SMALL
GASTEIGER

@<TRIPOS>ATOM
      1 C          -4.5080  -19.2713   21.3204 C.ar    1  UNL1        0.1311
      2 C          -5.0369  -18.9197   19.9614 C.ar    1  UNL1        0.0339
      3 C          -6.4804  -19.1613   19.6329 C.ar    1  UNL1        0.0027
      4 C          -7.3950  -19.7544   20.6633 C.ar    1  UNL1        0.0283
      5 C          -6.8661  -20.1061   22.0222 C.ar    1  UNL1        0.2196
      6 F          -7.7808  -20.6993   23.0525 F       1  UNL1       -0.1835
      7 N          -5.4227  -19.8645   22.3507 N.ar    1  UNL1       -0.2035
      8 N          -3.0646  -19.0298   21.6489 N.pl3   1  UNL1       -0.3132
      9 H          -2.3926  -19.7220   21.4527 H       1  UNL1        0.1485
     10 C          -2.6448  -17.7336   22.2765 C.3     1  UNL1        0.1348
     11 C          -6.0406  -15.2270   26.5408 C.3     1  UNL1        0.0327
     12 C          -5.1917  -15.8537   25.4748 C.ar    1  UNL1       -0.0027
     13 C          -4.3566  -17.0585   25.7927 C.ar    1  UNL1       -0.0015
     14 C          -3.5076  -17.6851   24.7266 C.ar    1  UNL1        0.0161
     15 C          -3.4938  -17.1069   23.3426 C.ar    1  UNL1        0.0788
     16 N          -4.3289  -15.9022   23.0246 N.ar    1  UNL1       -0.2468
     17 C          -5.1778  -15.2755   24.0908 C.ar    1  UNL1        0.0942
     18 C          -8.8386  -19.9960   20.3347 C.3     1  UNL1        0.0582
     19 C          -9.8246  -18.8683   20.4135 C.ar    1  UNL1        0.0044
     20 C         -10.8254  -18.4969   19.3598 C.ar    1  UNL1        0.0966
     21 N         -11.6022  -17.3132   19.8550 N.ar    1  UNL1       -0.2273
     22 C         -11.0814  -16.9529   21.2148 C.ar    1  UNL1        0.1402
     23 N         -11.4657  -15.8739   22.1832 N.ar    1  UNL1       -0.3377
     24 C         -10.7514  -15.7560   23.4969 C.ar    1  UNL1        0.0691
     25 C          -9.6527  -16.7172   23.8421 C.ar    1  UNL1       -0.0047
     26 C          -8.9384  -16.5992   25.1559 C.3     1  UNL1        0.0326
     27 C          -9.2684  -17.7962   22.8737 C.ar    1  UNL1       -0.0001
     28 C          -9.9828  -17.9141   21.5600 C.ar    1  UNL1        0.0315
     29 H         -12.1868  -15.2430   21.9567 H       1  UNL1        0.1674
@<TRIPOS>BOND
     1    11    12    1
     2    12    13   ar
     3    13    14   ar
     4    14    15   ar
     5    15    10    1
     6    10     8    1
     7     8     1    1
     8     1     2   ar
     9     2     3   ar
    10     3     4   ar
    11     4    18    1
    12    18    19    1
    13    19    20   ar
    14    20    21   ar
    15    21    22   ar
    16    22    23   ar
    17    23    24   ar
    18    24    25   ar
    19    25    26    1
    20    25    27   ar
    21    27    28   ar
    22     4     5   ar
    23     5     6    1
    24     5     7   ar
    25    15    16   ar
    26    16    17   ar
    27    17    12   ar
    28     7     1   ar
    29    28    19   ar
    30    28    22    1
    31     8     9    1
    32    23    29    1
@<TRIPOS>MOLECULE
*****
 29 32 0 0 0
SMALL
GASTEIGER

@<TRIPOS>ATOM
      1 C          -4.9085  -18.8822   20.9673 C.ar    1  UNL1        0.1311
      2 C          -5.3134  -19.6146   22.2122 C.ar    1  UNL1        0.0339
      3 C          -6.7161  -20.1252   22.3592 C.ar    1  UNL1        0.0027
      4 C          -7.7140  -19.9034   21.2614 C.ar    1  UNL1        0.0283
      5 C          -7.3091  -19.1710   20.0165 C.ar    1  UNL1        0.2196
      6 F          -8.3069  -18.9493   18.9188 F       1  UNL1       -0.1835
      7 N          -5.9064  -18.6605   19.8695 N.ar    1  UNL1       -0.2035
      8 N          -3.5058  -18.3717   20.8202 N.pl3   1  UNL1       -0.3132
      9 H          -3.0523  -18.4230   19.9479 H       1  UNL1        0.1485
     10 C          -2.7941  -17.7828   22.0021 C.3     1  UNL1        0.1348
     11 C          -5.9354  -15.2143   26.4218 C.3     1  UNL1        0.0327
     12 C          -5.1501  -15.8565   25.3169 C.ar    1  UNL1       -0.0027
     13 C          -4.3467  -17.0937   25.5887 C.ar    1  UNL1       -0.0015
     14 C          -3.5614  -17.7358   24.4838 C.ar    1  UNL1        0.0161
     15 C          -3.5794  -17.1407   23.1070 C.ar    1  UNL1        0.0788
     16 N          -4.3828  -15.9035   22.8351 N.ar    1  UNL1       -0.2468
     17 C          -5.1681  -15.2614   23.9401 C.ar    1  UNL1        0.0942
     18 C          -9.1168  -20.4140   21.4085 C.3     1  UNL1        0.0582
     19 C         -10.1042  -19.6621   22.2510 C.ar    1  UNL1        0.0044
     20 C         -10.5034  -20.0020   23.6563 C.ar    1  UNL1        0.0966
     21 N         -11.5116  -18.9882   24.1098 N.ar    1  UNL1       -0.2273
     22 C         -11.7355  -18.0216   22.9847 C.ar    1  UNL1        0.1402
     23 N         -12.6190  -16.8161   22.8579 N.ar    1  UNL1       -0.3377
     24 C         -12.6326  -16.0271   21.5823 C.ar    1  UNL1        0.0691
     25 C         -11.7627  -16.4436   20.4335 C.ar    1  UNL1       -0.0047
     26 C         -11.7763  -15.6545   19.1578 C.3     1  UNL1        0.0326
     27 C         -10.8792  -17.6491   20.5603 C.ar    1  UNL1       -0.0001
     28 C         -10.8656  -18.4381   21.8359 C.ar    1  UNL1        0.0315
     29 H         -13.1899  -16.5428   23.6120 H       1  UNL1        0.1674
@<TRIPOS>BOND
     1    11    12    1
     2    12    13   ar
     3    13    14   ar
     4    14    15   ar
     5    15    10    1
     6    10     8    1
     7     8     1    1
     8     1     2   ar
     9     2     3   ar
    10     3     4   ar
    11     4    18    1
    12    18    19    1
    13    19    20   ar
    14    20    21   ar
    15    21    22   ar
    16    22    23   ar
    17    23    24   ar
    18    24    25   ar
    19    25    26    1
    20    25    27   ar
    21    27    28   ar
    22     4     5   ar
    23     5     6    1
    24     5     7   ar
    25    15    16   ar
    26    16    17   ar
    27    17    12   ar
    28     7     1   ar
    29    28    19   ar
    30    28    22    1
    31     8     9    1
    32    23    29    1
@<TRIPOS>MOLECULE
*****
 29 32 0 0 0
SMALL
GASTEIGER

@<TRIPOS>ATOM
      1 C          -6.1991  -15.9212   24.3930 C.ar    1  UNL1        0.1311
      2 C          -6.7252  -15.1914   23.1928 C.ar    1  UNL1        0.0339
      3 C          -8.1875  -15.2460   22.8633 C.ar    1  UNL1        0.0027
      4 C          -9.1238  -16.0305   23.7340 C.ar    1  UNL1        0.0283
      5 C          -8.5977  -16.7603   24.9342 C.ar    1  UNL1        0.2196
      6 F          -9.5339  -17.5448   25.8049 F       1  UNL1       -0.1835
      7 N          -7.1354  -16.7057   25.2637 N.ar    1  UNL1       -0.2035
      8 N          -4.7368  -15.8666   24.7226 N.pl3   1  UNL1       -0.3132
      9 H          -4.3487  -15.0465   25.1047 H       1  UNL1        0.1485
     10 C          -3.8658  -17.0615   24.4699 C.3     1  UNL1        0.1348
     11 C          -2.1096  -18.3664   18.8832 C.3     1  UNL1        0.0327
     12 C          -2.5487  -18.0402   20.2799 C.ar    1  UNL1       -0.0027
     13 C          -3.3538  -19.0335   21.0643 C.ar    1  UNL1       -0.0015
     14 C          -3.7928  -18.7072   22.4610 C.ar    1  UNL1        0.0161
     15 C          -3.4268  -17.3877   23.0733 C.ar    1  UNL1        0.0788
     16 N          -2.6217  -16.3944   22.2888 N.ar    1  UNL1       -0.2468
     17 C          -2.1827  -16.7207   20.8921 C.ar    1  UNL1        0.0942
     18 C         -10.5862  -16.0851   23.4044 C.3     1  UNL1        0.0582
     19 C         -11.0454  -16.7443   22.1377 C.ar    1  UNL1        0.0044
     20 C         -12.3644  -16.5253   21.4579 C.ar    1  UNL1        0.0966
     21 N         -12.4004  -17.3838   20.2284 N.ar    1  UNL1       -0.2273
     22 C         -11.1036  -18.1334   20.1484 C.ar    1  UNL1        0.1402
     23 N         -10.5771  -19.1248   19.1534 N.ar    1  UNL1       -0.3377
     24 C          -9.2132  -19.7210   19.3385 C.ar    1  UNL1        0.0691
     25 C          -8.3758  -19.3257   20.5185 C.ar    1  UNL1       -0.0047
     26 C          -7.0118  -19.9219   20.7036 C.3     1  UNL1        0.0326
     27 C          -8.9022  -18.3343   21.5135 C.ar    1  UNL1       -0.0001
     28 C         -10.2661  -17.7381   21.3284 C.ar    1  UNL1        0.0315
     29 H         -11.1268  -19.3843   18.3790 H       1  UNL1        0.1674
@<TRIPOS>BOND
     1    11    12    1
     2    12    13   ar
     3    13    14   ar
     4    14    15   ar
     5    15    10    1
     6    10     8    1
     7     8     1    1
     8     1     2   ar
     9     2     3   ar
    10     3     4   ar
    11     4    18    1
    12    18    19    1
    13    19    20   ar
    14    20    21   ar
    15    21    22   ar
    16    22    23   ar
    17    23    24   ar
    18    24    25   ar
    19    25    26    1
    20    25    27   ar
    21    27    28   ar
    22     4     5   ar
    23     5     6    1
    24     5     7   ar
    25    15    16   ar
    26    16    17   ar
    27    17    12   ar
    28     7     1   ar
    29    28    19   ar
    30    28    22    1
    31     8     9    1
    32    23    29    1
