@<TRIPOS>MOLECULE
*****
 25 27 0 0 0
SMALL
GASTEIGER

@<TRIPOS>ATOM
      1 C          -8.4874  -16.3993   23.3913 C.2     1  UNL1        0.1910
      2 O          -8.2735  -15.6182   24.6540 O.2     1  UNL1       -0.2897
      3 C          -4.3383  -20.8190   20.1508 C.3     1  UNL1        0.0311
      4 C          -4.0340  -19.7233   21.1290 C.ar    1  UNL1       -0.0204
      5 C          -2.6164  -19.4587   21.5417 C.ar    1  UNL1       -0.0042
      6 C          -2.3121  -18.3630   22.5199 C.ar    1  UNL1        0.0012
      7 C          -3.4254  -17.5320   23.0855 C.ar    1  UNL1        0.0191
      8 C          -4.8430  -17.7967   22.6728 C.ar    1  UNL1        0.0811
      9 N          -5.9564  -16.9656   23.2384 N.ar    1  UNL1       -0.2425
     10 C          -7.3740  -17.2303   22.8257 C.ar    1  UNL1        0.1158
     11 C          -7.6783  -18.3259   21.8475 C.ar    1  UNL1        0.0220
     12 C          -6.5650  -19.1569   21.2819 C.ar    1  UNL1        0.0028
     13 C          -5.1473  -18.8923   21.6946 C.ar    1  UNL1        0.0138
     14 C          -9.8147  -16.3493   22.6943 C.3     1  UNL1        0.0728
     15 C         -11.2444  -16.4508   22.2519 C.3     1  UNL1        0.0257
     16 C         -11.3604  -15.7994   20.9058 C.3     1  UNL1        0.0690
     17 N         -10.0025  -15.2953   20.5161 N.3     1  UNL1       -0.2971
     18 C          -9.0471  -15.6352   21.6215 C.3     1  UNL1        0.0759
     19 H         -10.0333  -14.2844   20.3838 H       1  UNL1        0.1233
     20 C         -10.3047  -17.0738   23.9128 C.3     1  UNL1        0.0087
     21 C         -11.0375  -18.3746   23.7679 C.3     1  UNL1        0.0005
     22 C         -10.3234  -19.6697   24.0185 C.3     1  UNL1        0.0000
     23 C          -9.9037  -19.1764   25.3715 C.3     1  UNL1        0.0000
     24 C         -10.7431  -20.1629   22.6655 C.3     1  UNL1        0.0000
     25 C          -9.6093  -20.9648   24.2691 C.3     1  UNL1        0.0000
@<TRIPOS>BOND
     1     3     4    1
     2     4     5   ar
     3     5     6   ar
     4     6     7   ar
     5     7     8   ar
     6     8     9   ar
     7     9    10   ar
     8    10     1    1
     9     1     2    2
    10     1    14    1
    11    14    20    1
    12    20    21    1
    13    21    22    1
    14    22    23    1
    15    22    24    1
    16    22    25    1
    17    14    15    1
    18    15    16    1
    19    16    17    1
    20    17    18    1
    21    10    11   ar
    22    11    12   ar
    23    12    13   ar
    24    13     4   ar
    25    13     8   ar
    26    18    14    1
    27    17    19    1
@<TRIPOS>MOLECULE
*****
 25 27 0 0 0
SMALL
GASTEIGER

@<TRIPOS>ATOM
      1 C          -8.9218  -17.0997   22.2953 C.2     1  UNL1        0.1910
      2 O          -9.3104  -15.8412   21.5777 O.2     1  UNL1       -0.2897
      3 C          -3.7985  -20.9671   19.8364 C.3     1  UNL1        0.0311
      4 C          -3.8039  -19.8973   20.8879 C.ar    1  UNL1       -0.0204
      5 C          -2.5298  -19.5270   21.5875 C.ar    1  UNL1       -0.0042
      6 C          -2.5351  -18.4572   22.6390 C.ar    1  UNL1        0.0012
      7 C          -3.8146  -17.7578   22.9908 C.ar    1  UNL1        0.0191
      8 C          -5.0887  -18.1282   22.2912 C.ar    1  UNL1        0.0811
      9 N          -6.3682  -17.4288   22.6431 N.ar    1  UNL1       -0.2425
     10 C          -7.6423  -17.7991   21.9434 C.ar    1  UNL1        0.1158
     11 C          -7.6369  -18.8689   20.8920 C.ar    1  UNL1        0.0220
     12 C          -6.3575  -19.5683   20.5401 C.ar    1  UNL1        0.0028
     13 C          -5.0833  -19.1980   21.2397 C.ar    1  UNL1        0.0138
     14 C          -9.8126  -17.6589   23.3647 C.3     1  UNL1        0.0728
     15 C         -10.4673  -18.1406   24.6254 C.3     1  UNL1        0.0257
     16 C         -11.8152  -18.6919   24.2662 C.3     1  UNL1        0.0690
     17 N         -11.9937  -18.5510   22.7835 N.3     1  UNL1       -0.2971
     18 C         -10.7559  -17.9125   22.2264 C.3     1  UNL1        0.0759
     19 H         -12.8044  -17.9643   22.5867 H       1  UNL1        0.1233
     20 C          -8.6831  -17.2883   24.2795 C.3     1  UNL1        0.0087
     21 C          -8.7996  -16.0833   25.1650 C.3     1  UNL1        0.0005
     22 C          -7.6750  -15.7197   26.0888 C.3     1  UNL1        0.0000
     23 C          -6.9651  -15.0387   24.9564 C.3     1  UNL1        0.0000
     24 C          -8.3850  -16.4008   27.2211 C.3     1  UNL1        0.0000
     25 C          -6.5505  -15.3562   27.0125 C.3     1  UNL1        0.0000
@<TRIPOS>BOND
     1     3     4    1
     2     4     5   ar
     3     5     6   ar
     4     6     7   ar
     5     7     8   ar
     6     8     9   ar
     7     9    10   ar
     8    10     1    1
     9     1     2    2
    10     1    14    1
    11    14    20    1
    12    20    21    1
    13    21    22    1
    14    22    23    1
    15    22    24    1
    16    22    25    1
    17    14    15    1
    18    15    16    1
    19    16    17    1
    20    17    18    1
    21    10    11   ar
    22    11    12   ar
    23    12    13   ar
    24    13     4   ar
    25    13     8   ar
    26    18    14    1
    27    17    19    1
@<TRIPOS>MOLECULE
*****
 25 27 0 0 0
SMALL
GASTEIGER

@<TRIPOS>ATOM
      1 C          -8.2422  -16.6625   22.6989 C.2     1  UNL1        0.1910
      2 O          -9.0731  -15.8750   21.7297 O.2     1  UNL1       -0.2897
      3 C          -3.9167  -21.0582   19.6628 C.3     1  UNL1        0.0311
      4 C          -3.6778  -20.0100   20.7089 C.ar    1  UNL1       -0.0204
      5 C          -2.2978  -19.7988   21.2574 C.ar    1  UNL1       -0.0042
      6 C          -2.0589  -18.7506   22.3035 C.ar    1  UNL1        0.0012
      7 C          -3.1999  -17.9137   22.8010 C.ar    1  UNL1        0.0191
      8 C          -4.5799  -18.1250   22.2525 C.ar    1  UNL1        0.0811
      9 N          -5.7211  -17.2881   22.7500 N.ar    1  UNL1       -0.2425
     10 C          -7.1010  -17.4994   22.2014 C.ar    1  UNL1        0.1158
     11 C          -7.3400  -18.5475   21.1553 C.ar    1  UNL1        0.0220
     12 C          -6.1989  -19.3844   20.6578 C.ar    1  UNL1        0.0028
     13 C          -4.8188  -19.1732   21.2064 C.ar    1  UNL1        0.0138
     14 C          -8.5524  -16.6131   24.1657 C.3     1  UNL1        0.0728
     15 C          -9.0254  -16.8250   25.5733 C.3     1  UNL1        0.0257
     16 C          -8.4740  -15.7160   26.4194 C.3     1  UNL1        0.0690
     17 N          -7.6602  -14.8187   25.5349 N.3     1  UNL1       -0.2971
     18 C          -7.7087  -15.3731   24.1419 C.3     1  UNL1        0.0759
     19 H          -6.6949  -14.7917   25.8633 H       1  UNL1        0.1233
     20 C          -9.3312  -17.8634   23.8827 C.3     1  UNL1        0.0087
     21 C         -10.8307  -17.8344   23.9065 C.3     1  UNL1        0.0005
     22 C         -11.6045  -18.0037   22.6326 C.3     1  UNL1        0.0000
     23 C         -10.9183  -19.3153   22.3902 C.3     1  UNL1        0.0000
     24 C         -12.2907  -16.6921   22.8752 C.3     1  UNL1        0.0000
     25 C         -12.3782  -18.1729   21.3589 C.3     1  UNL1        0.0000
@<TRIPOS>BOND
     1     3     4    1
     2     4     5   ar
     3     5     6   ar
     4     6     7   ar
     5     7     8   ar
     6     8     9   ar
     7     9    10   ar
     8    10     1    1
     9     1     2    2
    10     1    14    1
    11    14    20    1
    12    20    21    1
    13    21    22    1
    14    22    23    1
    15    22    24    1
    16    22    25    1
    17    14    15    1
    18    15    16    1
    19    16    17    1
    20    17    18    1
    21    10    11   ar
    22    11    12   ar
    23    12    13   ar
    24    13     4   ar
    25    13     8   ar
    26    18    14    1
    27    17    19    1
@<TRIPOS>MOLECULE
*****
 25 27 0 0 0
SMALL
GASTEIGER

@<TRIPOS>ATOM
      1 C          -8.7650  -16.8930   23.2278 C.2     1  UNL1        0.1910
      2 O          -8.7676  -15.3973   23.3423 O.2     1  UNL1       -0.2897
      3 C          -4.1149  -20.8144   20.0264 C.3     1  UNL1        0.0311
      4 C          -3.9475  -19.7263   21.0452 C.ar    1  UNL1       -0.0204
      5 C          -2.5757  -19.3466   21.5184 C.ar    1  UNL1       -0.0042
      6 C          -2.4082  -18.2585   22.5373 C.ar    1  UNL1        0.0012
      7 C          -3.6126  -17.5501   23.0829 C.ar    1  UNL1        0.0191
      8 C          -4.9844  -17.9299   22.6097 C.ar    1  UNL1        0.0811
      9 N          -6.1888  -17.2216   23.1553 N.ar    1  UNL1       -0.2425
     10 C          -7.5606  -17.6013   22.6821 C.ar    1  UNL1        0.1158
     11 C          -7.7280  -18.6894   21.6633 C.ar    1  UNL1        0.0220
     12 C          -6.5237  -19.3977   21.1177 C.ar    1  UNL1        0.0028
     13 C          -5.1518  -19.0180   21.5909 C.ar    1  UNL1        0.0138
     14 C          -9.9668  -17.6802   23.6589 C.3     1  UNL1        0.0728
     15 C         -11.2951  -18.3570   23.8252 C.3     1  UNL1        0.0257
     16 C         -11.2597  -19.1394   25.1044 C.3     1  UNL1        0.0690
     17 N          -9.9096  -18.9462   25.7288 N.3     1  UNL1       -0.2971
     18 C          -9.1105  -18.0444   24.8353 C.3     1  UNL1        0.0759
     19 H          -9.4393  -19.8465   25.8219 H       1  UNL1        0.1233
     20 C         -10.5718  -17.1514   22.3923 C.3     1  UNL1        0.0087
     21 C         -11.4718  -18.0249   21.5694 C.3     1  UNL1        0.0005
     22 C         -10.9467  -18.6859   20.3294 C.3     1  UNL1        0.0000
     23 C         -11.0196  -20.0206   21.0102 C.3     1  UNL1        0.0000
     24 C         -10.8738  -17.3512   19.6488 C.3     1  UNL1        0.0000
     25 C         -10.4216  -19.3469   19.0896 C.3     1  UNL1        0.0000
@<TRIPOS>BOND
     1     3     4    1
     2     4     5   ar
     3     5     6   ar
     4     6     7   ar
     5     7     8   ar
     6     8     9   ar
     7     9    10   ar
     8    10     1    1
     9     1     2    2
    10     1    14    1
    11    14    20    1
    12    20    21    1
    13    21    22    1
    14    22    23    1
    15    22    24    1
    16    22    25    1
    17    14    15    1
    18    15    16    1
    19    16    17    1
    20    17    18    1
    21    10    11   ar
    22    11    12   ar
    23    12    13   ar
    24    13     4   ar
    25    13     8   ar
    26    18    14    1
    27    17    19    1
@<TRIPOS>MOLECULE
*****
 25 27 0 0 0
SMALL
GASTEIGER

@<TRIPOS>ATOM
      1 C          -7.4135  -15.8652   23.9096 C.2     1  UNL1        0.1910
      2 O          -7.7366  -14.5661   23.2328 O.2     1  UNL1       -0.2897
      3 C          -2.1962  -19.6921   21.5892 C.3     1  UNL1        0.0311
      4 C          -3.6665  -19.7572   21.2995 C.ar    1  UNL1       -0.0204
      5 C          -4.2001  -20.7952   20.3574 C.ar    1  UNL1       -0.0042
      6 C          -5.6704  -20.8603   20.0677 C.ar    1  UNL1        0.0012
      7 C          -6.6071  -19.8874   20.7202 C.ar    1  UNL1        0.0191
      8 C          -6.0736  -18.8493   21.6624 C.ar    1  UNL1        0.0811
      9 N          -7.0103  -17.8763   22.3149 N.ar    1  UNL1       -0.2425
     10 C          -6.4768  -16.8382   23.2571 C.ar    1  UNL1        0.1158
     11 C          -5.0064  -16.7731   23.5467 C.ar    1  UNL1        0.0220
     12 C          -4.0697  -17.7461   22.8942 C.ar    1  UNL1        0.0028
     13 C          -4.6032  -18.7842   21.9520 C.ar    1  UNL1        0.0138
     14 C          -8.0272  -16.1912   25.2389 C.3     1  UNL1        0.0728
     15 C          -8.8706  -16.6414   26.3947 C.3     1  UNL1        0.0257
     16 C          -8.1644  -16.2575   27.6611 C.3     1  UNL1        0.0690
     17 N          -6.8845  -15.5700   27.2880 N.3     1  UNL1       -0.2971
     18 C          -6.7997  -15.5290   25.7910 C.3     1  UNL1        0.0759
     19 H          -6.0908  -16.0875   27.6657 H       1  UNL1        0.1233
     20 C          -9.1264  -16.7852   24.4089 C.3     1  UNL1        0.0087
     21 C          -9.6946  -18.1266   24.7661 C.3     1  UNL1        0.0005
     22 C         -10.3290  -18.9786   23.7069 C.3     1  UNL1        0.0000
     23 C         -11.2647  -17.8571   23.3654 C.3     1  UNL1        0.0000
     24 C          -9.3933  -20.1001   24.0486 C.3     1  UNL1        0.0000
     25 C         -10.9634  -19.8305   22.6479 C.3     1  UNL1        0.0000
@<TRIPOS>BOND
     1     3     4    1
     2     4     5   ar
     3     5     6   ar
     4     6     7   ar
     5     7     8   ar
     6     8     9   ar
     7     9    10   ar
     8    10     1    1
     9     1     2    2
    10     1    14    1
    11    14    20    1
    12    20    21    1
    13    21    22    1
    14    22    23    1
    15    22    24    1
    16    22    25    1
    17    14    15    1
    18    15    16    1
    19    16    17    1
    20    17    18    1
    21    10    11   ar
    22    11    12   ar
    23    12    13   ar
    24    13     4   ar
    25    13     8   ar
    26    18    14    1
    27    17    19    1
@<TRIPOS>MOLECULE
*****
 25 27 0 0 0
SMALL
GASTEIGER

@<TRIPOS>ATOM
      1 C          -9.1328  -19.0640   22.5778 C.2     1  UNL1        0.1910
      2 O          -9.8133  -20.2514   23.1917 O.2     1  UNL1       -0.2897
      3 C          -2.9337  -20.3258   19.8890 C.3     1  UNL1        0.0311
      4 C          -3.3554  -19.4040   20.9946 C.ar    1  UNL1       -0.0204
      5 C          -2.3328  -18.5672   21.7045 C.ar    1  UNL1       -0.0042
      6 C          -2.7544  -17.6454   22.8102 C.ar    1  UNL1        0.0012
      7 C          -4.1987  -17.5604   23.2060 C.ar    1  UNL1        0.0191
      8 C          -5.2214  -18.3972   22.4961 C.ar    1  UNL1        0.0811
      9 N          -6.6658  -18.3122   22.8919 N.ar    1  UNL1       -0.2425
     10 C          -7.6884  -19.1490   22.1820 C.ar    1  UNL1        0.1158
     11 C          -7.2667  -20.0708   21.0763 C.ar    1  UNL1        0.0220
     12 C          -5.8224  -20.1558   20.6805 C.ar    1  UNL1        0.0028
     13 C          -4.7997  -19.3190   21.3904 C.ar    1  UNL1        0.0138
     14 C          -9.8966  -17.7916   22.3597 C.3     1  UNL1        0.0728
     15 C         -10.6320  -16.4876   22.4522 C.3     1  UNL1        0.0257
     16 C         -11.0626  -16.0991   21.0689 C.3     1  UNL1        0.0690
     17 N         -10.5934  -17.1630   20.1214 N.3     1  UNL1       -0.2971
     18 C          -9.8727  -18.2091   20.9191 C.3     1  UNL1        0.0759
     19 H          -9.9613  -16.7575   19.4312 H       1  UNL1        0.1233
     20 C          -9.7608  -17.6402   23.8458 C.3     1  UNL1        0.0087
     21 C          -9.1414  -16.4005   24.4198 C.3     1  UNL1        0.0005
     22 C          -8.6172  -16.4057   25.8253 C.3     1  UNL1        0.0000
     23 C          -7.8692  -15.1347   25.5509 C.3     1  UNL1        0.0000
     24 C          -9.3651  -17.6766   26.0996 C.3     1  UNL1        0.0000
     25 C          -8.0929  -16.4108   27.2306 C.3     1  UNL1        0.0000
@<TRIPOS>BOND
     1     3     4    1
     2     4     5   ar
     3     5     6   ar
     4     6     7   ar
     5     7     8   ar
     6     8     9   ar
     7     9    10   ar
     8    10     1    1
     9     1     2    2
    10     1    14    1
    11    14    20    1
    12    20    21    1
    13    21    22    1
    14    22    23    1
    15    22    24    1
    16    22    25    1
    17    14    15    1
    18    15    16    1
    19    16    17    1
    20    17    18    1
    21    10    11   ar
    22    11    12   ar
    23    12    13   ar
    24    13     4   ar
    25    13     8   ar
    26    18    14    1
    27    17    19    1
@<TRIPOS>MOLECULE
*****
 25 27 0 0 0
SMALL
GASTEIGER

@<TRIPOS>ATOM
      1 C          -4.1101  -19.1389   22.0312 C.2     1  UNL1        0.1910
      2 O          -3.3108  -20.3841   22.2775 O.2     1  UNL1       -0.2897
      3 C         -10.3362  -19.3175   19.1235 C.3     1  UNL1        0.0311
      4 C          -9.9089  -19.5418   20.5438 C.ar    1  UNL1       -0.0204
      5 C         -10.9313  -19.8667   21.5921 C.ar    1  UNL1       -0.0042
      6 C         -10.5040  -20.0910   23.0124 C.ar    1  UNL1        0.0012
      7 C          -9.0543  -19.9903   23.3843 C.ar    1  UNL1        0.0191
      8 C          -8.0320  -19.6653   22.3359 C.ar    1  UNL1        0.0811
      9 N          -6.5822  -19.5646   22.7077 N.ar    1  UNL1       -0.2425
     10 C          -5.5599  -19.2396   21.6594 C.ar    1  UNL1        0.1158
     11 C          -5.9872  -19.0154   20.2391 C.ar    1  UNL1        0.0220
     12 C          -7.4368  -19.1161   19.8672 C.ar    1  UNL1        0.0028
     13 C          -8.4593  -19.4411   20.9156 C.ar    1  UNL1        0.0138
     14 C          -3.4598  -17.7931   22.1568 C.3     1  UNL1        0.0728
     15 C          -3.0216  -16.4025   22.5089 C.3     1  UNL1        0.0257
     16 C          -1.8721  -16.0388   21.6165 C.3     1  UNL1        0.0690
     17 N          -1.5999  -17.2046   20.7128 N.3     1  UNL1       -0.2971
     18 C          -2.5812  -18.2889   21.0467 C.3     1  UNL1        0.0759
     19 H          -0.6485  -17.5416   20.8596 H       1  UNL1        0.1233
     20 C          -4.4744  -17.5787   23.2406 C.3     1  UNL1        0.0087
     21 C          -4.7430  -16.1950   23.7534 C.3     1  UNL1        0.0005
     22 C          -5.9961  -15.9122   24.5280 C.3     1  UNL1        0.0000
     23 C          -6.8145  -16.1688   23.2974 C.3     1  UNL1        0.0000
     24 C          -5.1775  -15.6556   25.7585 C.3     1  UNL1        0.0000
     25 C          -7.2491  -15.6294   25.3025 C.3     1  UNL1        0.0000
@<TRIPOS>BOND
     1     3     4    1
     2     4     5   ar
     3     5     6   ar
     4     6     7   ar
     5     7     8   ar
     6     8     9   ar
     7     9    10   ar
     8    10     1    1
     9     1     2    2
    10     1    14    1
    11    14    20    1
    12    20    21    1
    13    21    22    1
    14    22    23    1
    15    22    24    1
    16    22    25    1
    17    14    15    1
    18    15    16    1
    19    16    17    1
    20    17    18    1
    21    10    11   ar
    22    11    12   ar
    23    12    13   ar
    24    13     4   ar
    25    13     8   ar
    26    18    14    1
    27    17    19    1
@<TRIPOS>MOLECULE
*****
 25 27 0 0 0
SMALL
GASTEIGER

@<TRIPOS>ATOM
      1 C          -8.6807  -17.6072   22.3445 C.2     1  UNL1        0.1910
      2 O          -9.3625  -16.8343   21.2547 O.2     1  UNL1       -0.2897
      3 C          -1.8506  -18.2344   22.7985 C.3     1  UNL1        0.0311
      4 C          -2.8409  -18.9094   21.8964 C.ar    1  UNL1       -0.0204
      5 C          -2.3712  -19.9099   20.8824 C.ar    1  UNL1       -0.0042
      6 C          -3.3615  -20.5849   19.9803 C.ar    1  UNL1        0.0012
      7 C          -4.8214  -20.2594   20.0923 C.ar    1  UNL1        0.0191
      8 C          -5.2911  -19.2589   21.1064 C.ar    1  UNL1        0.0811
      9 N          -6.7511  -18.9333   21.2184 N.ar    1  UNL1       -0.2425
     10 C          -7.2207  -17.9328   22.2325 C.ar    1  UNL1        0.1158
     11 C          -6.2304  -17.2578   23.1345 C.ar    1  UNL1        0.0220
     12 C          -4.7705  -17.5833   23.0225 C.ar    1  UNL1        0.0028
     13 C          -4.3008  -18.5839   22.0084 C.ar    1  UNL1        0.0138
     14 C          -9.4588  -18.0546   23.5463 C.3     1  UNL1        0.0728
     15 C         -10.2056  -18.2035   24.8386 C.3     1  UNL1        0.0257
     16 C         -10.6543  -19.6302   24.9530 C.3     1  UNL1        0.0690
     17 N         -10.1848  -20.3632   23.7314 N.3     1  UNL1       -0.2971
     18 C          -9.4459  -19.3894   22.8620 C.3     1  UNL1        0.0759
     19 H         -10.9857  -20.7407   23.2251 H       1  UNL1        0.1233
     20 C          -9.3090  -16.6263   23.9793 C.3     1  UNL1        0.0087
     21 C          -9.2133  -16.2910   25.4382 C.3     1  UNL1        0.0005
     22 C          -7.9378  -15.7342   25.9977 C.3     1  UNL1        0.0000
     23 C          -7.7369  -14.9351   24.7443 C.3     1  UNL1        0.0000
     24 C          -8.1388  -16.5334   27.2511 C.3     1  UNL1        0.0000
     25 C          -6.6623  -15.1775   26.5572 C.3     1  UNL1        0.0000
@<TRIPOS>BOND
     1     3     4    1
     2     4     5   ar
     3     5     6   ar
     4     6     7   ar
     5     7     8   ar
     6     8     9   ar
     7     9    10   ar
     8    10     1    1
     9     1     2    2
    10     1    14    1
    11    14    20    1
    12    20    21    1
    13    21    22    1
    14    22    23    1
    15    22    24    1
    16    22    25    1
    17    14    15    1
    18    15    16    1
    19    16    17    1
    20    17    18    1
    21    10    11   ar
    22    11    12   ar
    23    12    13   ar
    24    13     4   ar
    25    13     8   ar
    26    18    14    1
    27    17    19    1
@<TRIPOS>MOLECULE
*****
 25 27 0 0 0
SMALL
GASTEIGER

@<TRIPOS>ATOM
      1 C          -8.3617  -16.9700   23.5221 C.2     1  UNL1        0.1910
      2 O          -8.5503  -15.5125   23.8223 O.2     1  UNL1       -0.2897
      3 C          -1.7575  -18.3976   22.2583 C.3     1  UNL1        0.0311
      4 C          -3.0154  -18.9894   21.6947 C.ar    1  UNL1       -0.0204
      5 C          -2.9367  -20.0860   20.6744 C.ar    1  UNL1       -0.0042
      6 C          -4.1945  -20.6779   20.1109 C.ar    1  UNL1        0.0012
      7 C          -5.5311  -20.1730   20.5677 C.ar    1  UNL1        0.0191
      8 C          -5.6098  -19.0764   21.5880 C.ar    1  UNL1        0.0811
      9 N          -6.9464  -18.5715   22.0449 N.ar    1  UNL1       -0.2425
     10 C          -7.0251  -17.4749   23.0652 C.ar    1  UNL1        0.1158
     11 C          -5.7673  -16.8831   23.6288 C.ar    1  UNL1        0.0220
     12 C          -4.4307  -17.3879   23.1720 C.ar    1  UNL1        0.0028
     13 C          -4.3519  -18.4846   22.1516 C.ar    1  UNL1        0.0138
     14 C          -9.5097  -17.9226   23.6788 C.3     1  UNL1        0.0728
     15 C         -10.7050  -18.8168   23.5311 C.3     1  UNL1        0.0257
     16 C         -10.9776  -19.4500   24.8632 C.3     1  UNL1        0.0690
     17 N          -9.9509  -18.9473   25.8343 N.3     1  UNL1       -0.2971
     18 C          -9.0436  -18.0033   25.1023 C.3     1  UNL1        0.0759
     19 H          -9.4109  -19.7300   26.2034 H       1  UNL1        0.1233
     20 C          -9.7358  -17.6429   22.2226 C.3     1  UNL1        0.0087
     21 C         -11.0942  -17.8499   21.6212 C.3     1  UNL1        0.0005
     22 C         -11.6158  -16.8861   20.5969 C.3     1  UNL1        0.0000
     23 C         -12.1295  -15.9998   21.6926 C.3     1  UNL1        0.0000
     24 C         -11.1021  -17.7725   19.5013 C.3     1  UNL1        0.0000
     25 C         -12.1374  -15.9224   19.5727 C.3     1  UNL1        0.0000
@<TRIPOS>BOND
     1     3     4    1
     2     4     5   ar
     3     5     6   ar
     4     6     7   ar
     5     7     8   ar
     6     8     9   ar
     7     9    10   ar
     8    10     1    1
     9     1     2    2
    10     1    14    1
    11    14    20    1
    12    20    21    1
    13    21    22    1
    14    22    23    1
    15    22    24    1
    16    22    25    1
    17    14    15    1
    18    15    16    1
    19    16    17    1
    20    17    18    1
    21    10    11   ar
    22    11    12   ar
    23    12    13   ar
    24    13     4   ar
    25    13     8   ar
    26    18    14    1
    27    17    19    1
