@<TRIPOS>MOLECULE
*****
 35 37 0 0 0
SMALL
GASTEIGER

@<TRIPOS>ATOM
      1 C          -5.5092  -17.6557   22.7763 C.ar    1  UNL1        0.1041
      2 N          -6.2645  -16.4381   23.2202 N.ar    1  UNL1       -0.2443
      3 C          -7.7020  -16.2632   22.8290 C.ar    1  UNL1        0.0986
      4 C          -8.3842  -17.3059   21.9940 C.ar    1  UNL1        0.0216
      5 C          -7.6290  -18.5235   21.5502 C.ar    1  UNL1        0.0325
      6 C          -6.1915  -18.6984   21.9413 C.ar    1  UNL1        0.1552
      7 F          -5.4362  -19.9160   21.4974 F       1  UNL1       -0.2029
      8 C          -9.8218  -17.1311   21.6029 C.ar    1  UNL1        0.0077
      9 C         -10.1802  -16.2674   20.4301 C.ar    1  UNL1        0.0117
     10 C         -11.6177  -16.0926   20.0389 C.ar    1  UNL1        0.0599
     11 CL        -11.9761  -15.2289   18.8660 Cl      1  UNL1       -0.0822
     12 C         -12.6968  -16.7814   20.8206 C.ar    1  UNL1        0.0411
     13 C         -12.3383  -17.6450   21.9935 C.ar    1  UNL1        0.1440
     14 F         -13.4175  -18.3338   22.7753 F       1  UNL1       -0.2040
     15 C         -10.9008  -17.8199   22.3846 C.ar    1  UNL1        0.0669
     16 C         -10.5424  -18.6836   23.5575 C.ar    1  UNL1        0.2079
     17 N         -10.2973  -18.2094   24.9594 N.ar    1  UNL1       -0.1077
     18 N          -9.9696  -19.4057   25.8028 N.ar    1  UNL1       -0.0450
     19 N         -10.0123  -20.6194   24.9221 N.ar    1  UNL1       -0.1488
     20 C          -9.7474  -22.0314   25.3534 C.3     1  UNL1        0.1795
     21 N         -10.3663  -20.1730   23.5345 N.ar    1  UNL1       -0.1296
     22 C          -3.6472  -17.5986   24.5873 C.3     1  UNL1        0.0279
     23 C          -4.0717  -17.8305   23.1675 C.3     1  UNL1        0.1142
     24 N          -3.0587  -18.2374   22.1388 N.am    1  UNL1       -0.2986
     25 C          -2.3580  -17.1925   21.3219 C.2     1  UNL1        0.2552
     26 O          -2.7885  -15.7965   21.6620 O.2     1  UNL1       -0.2723
     27 H          -2.8537  -19.1902   21.9997 H       1  UNL1        0.1498
     28 C          -1.3449  -17.5994   20.2932 C.3     1  UNL1        0.2443
     29 C          -0.3320  -18.0063   19.2645 C.3     1  UNL1        0.0478
     30 O          -0.3653  -16.6214   20.8710 O.3     1  UNL1       -0.3719
     31 H           0.5054  -16.7584   20.4660 H       1  UNL1        0.2111
     32 C          -2.3245  -18.5774   19.7155 C.3     1  UNL1        0.4274
     33 F          -3.3041  -19.5555   19.1377 F       1  UNL1       -0.1671
     34 F          -3.1948  -17.5743   19.0181 F       1  UNL1       -0.1671
     35 F          -1.5681  -19.7082   20.3471 F       1  UNL1       -0.1671
@<TRIPOS>BOND
     1    23    22    1
     2    23    24    1
     3    24    25   am
     4    25    26    2
     5    25    28    1
     6    28    29    1
     7    28    30    1
     8    28    32    1
     9    32    33    1
    10    32    34    1
    11    32    35    1
    12    23     1    1
    13     1     2   ar
    14     2     3   ar
    15     3     4   ar
    16     4     8    1
    17     8     9   ar
    18     9    10   ar
    19    10    11    1
    20    10    12   ar
    21    12    13   ar
    22    13    14    1
    23    13    15   ar
    24    15    16    1
    25    16    17   ar
    26    17    18   ar
    27    18    19   ar
    28    19    20    1
    29    19    21   ar
    30     4     5   ar
    31     5     6   ar
    32     6     7    1
    33     6     1   ar
    34    15     8   ar
    35    21    16   ar
    36    24    27    1
    37    30    31    1
@<TRIPOS>MOLECULE
*****
 35 37 0 0 0
SMALL
GASTEIGER

@<TRIPOS>ATOM
      1 C          -4.7445  -18.0772   22.9600 C.ar    1  UNL1        0.1041
      2 N          -5.3493  -19.3367   22.4142 N.ar    1  UNL1       -0.2443
      3 C          -6.8173  -19.3937   22.1112 C.ar    1  UNL1        0.0986
      4 C          -7.6804  -18.1912   22.3541 C.ar    1  UNL1        0.0216
      5 C          -7.0756  -16.9318   22.8999 C.ar    1  UNL1        0.0325
      6 C          -5.6076  -16.8748   23.2029 C.ar    1  UNL1        0.1552
      7 F          -5.0028  -15.6153   23.7487 F       1  UNL1       -0.2029
      8 C          -9.1484  -18.2482   22.0511 C.ar    1  UNL1        0.0077
      9 C          -9.6159  -18.5888   20.6672 C.ar    1  UNL1        0.0117
     10 C         -11.0839  -18.6458   20.3642 C.ar    1  UNL1        0.0599
     11 CL        -11.5514  -18.9864   18.9802 Cl      1  UNL1       -0.0822
     12 C         -12.0844  -18.3622   21.4452 C.ar    1  UNL1        0.0411
     13 C         -11.6168  -18.0216   22.8292 C.ar    1  UNL1        0.1440
     14 F         -12.6173  -17.7380   23.9103 F       1  UNL1       -0.2040
     15 C         -10.1489  -17.9646   23.1321 C.ar    1  UNL1        0.0669
     16 C          -9.6814  -17.6240   24.5162 C.ar    1  UNL1        0.2079
     17 N          -9.6337  -18.5613   25.6863 N.ar    1  UNL1       -0.1077
     18 N          -9.1024  -17.8030   26.8664 N.ar    1  UNL1       -0.0450
     19 N          -8.8216  -16.3969   26.4255 N.ar    1  UNL1       -0.1488
     20 C          -8.2784  -15.2949   27.2861 C.3     1  UNL1        0.1795
     21 N          -9.1794  -16.2864   24.9730 N.ar    1  UNL1       -0.1296
     22 C          -2.8094  -17.7475   24.6620 C.3     1  UNL1        0.0279
     23 C          -3.2765  -18.0202   23.2629 C.3     1  UNL1        0.1142
     24 N          -2.2755  -18.2360   22.1668 N.am    1  UNL1       -0.2986
     25 C          -1.9438  -17.1180   21.2234 C.2     1  UNL1        0.2552
     26 O          -2.7018  -15.8577   21.5184 O.2     1  UNL1       -0.2723
     27 H          -1.8363  -19.1113   22.0666 H       1  UNL1        0.1498
     28 C          -0.9428  -17.3338   20.1272 C.3     1  UNL1        0.2443
     29 C           0.0581  -17.5496   19.0311 C.3     1  UNL1        0.0478
     30 O          -0.0113  -16.3601   20.7861 O.3     1  UNL1       -0.3719
     31 H           0.8517  -16.3886   20.3442 H       1  UNL1        0.2111
     32 C          -1.8743  -18.3075   19.4683 C.3     1  UNL1        0.4274
     33 F          -2.8058  -19.2813   18.8094 F       1  UNL1       -0.1671
     34 F          -2.8356  -17.2966   18.9171 F       1  UNL1       -0.1671
     35 F          -1.0202  -19.4456   19.9427 F       1  UNL1       -0.1671
@<TRIPOS>BOND
     1    23    22    1
     2    23    24    1
     3    24    25   am
     4    25    26    2
     5    25    28    1
     6    28    29    1
     7    28    30    1
     8    28    32    1
     9    32    33    1
    10    32    34    1
    11    32    35    1
    12    23     1    1
    13     1     2   ar
    14     2     3   ar
    15     3     4   ar
    16     4     8    1
    17     8     9   ar
    18     9    10   ar
    19    10    11    1
    20    10    12   ar
    21    12    13   ar
    22    13    14    1
    23    13    15   ar
    24    15    16    1
    25    16    17   ar
    26    17    18   ar
    27    18    19   ar
    28    19    20    1
    29    19    21   ar
    30     4     5   ar
    31     5     6   ar
    32     6     7    1
    33     6     1   ar
    34    15     8   ar
    35    21    16   ar
    36    24    27    1
    37    30    31    1
@<TRIPOS>MOLECULE
*****
 35 37 0 0 0
SMALL
GASTEIGER

@<TRIPOS>ATOM
      1 C           0.3205    2.1673   19.6327 C.ar    1  UNL1        0.1041
      2 N          -0.2489    1.0077   20.3949 N.ar    1  UNL1       -0.2443
      3 C           0.6159   -0.1745   20.7182 C.ar    1  UNL1        0.0986
      4 C           2.0500   -0.1971   20.2793 C.ar    1  UNL1        0.0216
      5 C           2.6194    0.9625   19.5170 C.ar    1  UNL1        0.0325
      6 C           1.7546    2.1447   19.1938 C.ar    1  UNL1        0.1552
      7 F           2.3241    3.3044   18.4315 F       1  UNL1       -0.2029
      8 C           2.9148   -1.3794   20.6026 C.ar    1  UNL1        0.0077
      9 C           3.0805   -2.4836   19.6010 C.ar    1  UNL1        0.0117
     10 C           3.9453   -3.6658   19.9243 C.ar    1  UNL1        0.0599
     11 CL          4.1110   -4.7701   18.9227 Cl      1  UNL1       -0.0822
     12 C           4.6443   -3.7438   21.2491 C.ar    1  UNL1        0.0411
     13 C           4.4786   -2.6396   22.2507 C.ar    1  UNL1        0.1440
     14 F           5.1776   -2.7175   23.5756 F       1  UNL1       -0.2040
     15 C           3.6138   -1.4573   21.9274 C.ar    1  UNL1        0.0669
     16 C           3.4481   -0.3531   22.9290 C.ar    1  UNL1        0.2079
     17 N           4.1952    0.9476   22.9390 N.ar    1  UNL1       -0.1077
     18 N           3.7151    1.7490   24.1126 N.ar    1  UNL1       -0.0450
     19 N           2.6712    0.9435   24.8280 N.ar    1  UNL1       -0.1488
     20 C           1.9236    1.3634   26.0587 C.3     1  UNL1        0.1795
     21 N           2.5063   -0.3556   24.0964 N.ar    1  UNL1       -0.1296
     22 C          -0.9266    3.6325   17.8868 C.3     1  UNL1        0.0279
     23 C          -0.5443    3.3496   19.3094 C.3     1  UNL1        0.1142
     24 N          -1.0267    4.2489   20.4087 N.am    1  UNL1       -0.2986
     25 C          -2.3581    3.9985   21.0527 C.2     1  UNL1        0.2552
     26 O          -3.0731    2.8117   20.4782 O.2     1  UNL1       -0.2723
     27 H          -0.4695    5.0035   20.7075 H       1  UNL1        0.1498
     28 C          -2.8404    4.8979   22.1520 C.3     1  UNL1        0.2443
     29 C          -3.3228    5.7972   23.2513 C.3     1  UNL1        0.0478
     30 O          -1.9566    5.9968   21.6409 O.3     1  UNL1       -0.3719
     31 H          -2.1642    6.8218   22.1069 H       1  UNL1        0.2111
     32 C          -3.7242    3.7990   22.6632 C.3     1  UNL1        0.4274
     33 F          -4.6081    2.7001   23.1744 F       1  UNL1       -0.1671
     34 F          -4.9937    4.2701   22.0177 F       1  UNL1       -0.1671
     35 F          -2.5539    3.1894   23.3763 F       1  UNL1       -0.1671
@<TRIPOS>BOND
     1    23    22    1
     2    23    24    1
     3    24    25   am
     4    25    26    2
     5    25    28    1
     6    28    29    1
     7    28    30    1
     8    28    32    1
     9    32    33    1
    10    32    34    1
    11    32    35    1
    12    23     1    1
    13     1     2   ar
    14     2     3   ar
    15     3     4   ar
    16     4     8    1
    17     8     9   ar
    18     9    10   ar
    19    10    11    1
    20    10    12   ar
    21    12    13   ar
    22    13    14    1
    23    13    15   ar
    24    15    16    1
    25    16    17   ar
    26    17    18   ar
    27    18    19   ar
    28    19    20    1
    29    19    21   ar
    30     4     5   ar
    31     5     6   ar
    32     6     7    1
    33     6     1   ar
    34    15     8   ar
    35    21    16   ar
    36    24    27    1
    37    30    31    1
@<TRIPOS>MOLECULE
*****
 35 37 0 0 0
SMALL
GASTEIGER

@<TRIPOS>ATOM
      1 C           2.6758    0.9865   20.2956 C.ar    1  UNL1        0.1041
      2 N           3.0941    2.1112   21.1956 N.ar    1  UNL1       -0.2443
      3 C           2.2461    2.4825   22.3759 C.ar    1  UNL1        0.0986
      4 C           0.9798    1.7290   22.6562 C.ar    1  UNL1        0.0216
      5 C           0.5615    0.6042   21.7562 C.ar    1  UNL1        0.0325
      6 C           1.4095    0.2330   20.5759 C.ar    1  UNL1        0.1552
      7 F           0.9912   -0.8918   19.6760 F       1  UNL1       -0.2029
      8 C           0.1317    2.1002   23.8364 C.ar    1  UNL1        0.0077
      9 C           0.4125    1.4975   25.1809 C.ar    1  UNL1        0.0117
     10 C          -0.4355    1.8687   26.3612 C.ar    1  UNL1        0.0599
     11 CL         -0.1546    1.2660   27.7058 Cl      1  UNL1       -0.0822
     12 C          -1.5644    2.8427   26.1969 C.ar    1  UNL1        0.0411
     13 C          -1.8452    3.4454   24.8524 C.ar    1  UNL1        0.1440
     14 F          -2.9741    4.4194   24.6881 F       1  UNL1       -0.2040
     15 C          -0.9971    3.0742   23.6721 C.ar    1  UNL1        0.0669
     16 C          -1.2780    3.6769   22.3275 C.ar    1  UNL1        0.2079
     17 N          -0.5972    4.8774   21.7399 N.ar    1  UNL1       -0.1077
     18 N          -1.1874    5.1275   20.3838 N.ar    1  UNL1       -0.0450
     19 N          -2.2330    4.0815   20.1333 N.ar    1  UNL1       -0.1488
     20 C          -3.0748    3.9544   18.8983 C.3     1  UNL1        0.1795
     21 N          -2.2890    3.1851   21.3346 N.ar    1  UNL1       -0.1296
     22 C           4.2498    1.6807   18.3487 C.3     1  UNL1        0.0279
     23 C           3.5239    0.6153   19.1154 C.3     1  UNL1        0.1142
     24 N           3.6460   -0.8214   18.7018 N.am    1  UNL1       -0.2986
     25 C           4.5957   -1.7313   19.4230 C.2     1  UNL1        0.2552
     26 O           5.3417   -1.0434   20.5276 O.2     1  UNL1       -0.2723
     27 H           3.1028   -1.1671   17.9571 H       1  UNL1        0.1498
     28 C           4.7178   -3.1680   19.0094 C.3     1  UNL1        0.2443
     29 C           4.8399   -4.6047   18.5959 C.3     1  UNL1        0.0478
     30 O           4.9013   -2.7419   17.5830 O.3     1  UNL1       -0.3719
     31 H           5.1580   -3.5085   17.0470 H       1  UNL1        0.2111
     32 C           4.5343   -3.5942   20.4358 C.3     1  UNL1        0.4274
     33 F           4.3508   -4.0204   21.8623 F       1  UNL1       -0.1671
     34 F           3.1367   -3.0757   20.6032 F       1  UNL1       -0.1671
     35 F           5.9198   -4.1690   20.4423 F       1  UNL1       -0.1671
@<TRIPOS>BOND
     1    23    22    1
     2    23    24    1
     3    24    25   am
     4    25    26    2
     5    25    28    1
     6    28    29    1
     7    28    30    1
     8    28    32    1
     9    32    33    1
    10    32    34    1
    11    32    35    1
    12    23     1    1
    13     1     2   ar
    14     2     3   ar
    15     3     4   ar
    16     4     8    1
    17     8     9   ar
    18     9    10   ar
    19    10    11    1
    20    10    12   ar
    21    12    13   ar
    22    13    14    1
    23    13    15   ar
    24    15    16    1
    25    16    17   ar
    26    17    18   ar
    27    18    19   ar
    28    19    20    1
    29    19    21   ar
    30     4     5   ar
    31     5     6   ar
    32     6     7    1
    33     6     1   ar
    34    15     8   ar
    35    21    16   ar
    36    24    27    1
    37    30    31    1
@<TRIPOS>MOLECULE
*****
 35 37 0 0 0
SMALL
GASTEIGER

@<TRIPOS>ATOM
      1 C           3.6841    1.3371   18.2175 C.ar    1  UNL1        0.1041
      2 N           2.4560    0.4799   18.1335 N.ar    1  UNL1       -0.2443
      3 C           1.0971    1.1017   18.2626 C.ar    1  UNL1        0.0986
      4 C           0.9662    2.5807   18.4756 C.ar    1  UNL1        0.0216
      5 C           2.1942    3.4378   18.5596 C.ar    1  UNL1        0.0325
      6 C           3.5532    2.8160   18.4305 C.ar    1  UNL1        0.1552
      7 F           4.7813    3.6733   18.5145 F       1  UNL1       -0.2029
      8 C          -0.3927    3.2025   18.6047 C.ar    1  UNL1        0.0077
      9 C          -1.1090    3.6998   17.3842 C.ar    1  UNL1        0.0117
     10 C          -2.4679    4.3216   17.5133 C.ar    1  UNL1        0.0599
     11 CL         -3.1842    4.8189   16.2927 Cl      1  UNL1       -0.0822
     12 C          -3.1106    4.4461   18.8629 C.ar    1  UNL1        0.0411
     13 C          -2.3944    3.9488   20.0834 C.ar    1  UNL1        0.1440
     14 F          -3.0371    4.0733   21.4330 F       1  UNL1       -0.2040
     15 C          -1.0354    3.3270   19.9543 C.ar    1  UNL1        0.0669
     16 C          -0.3192    2.8297   21.1749 C.ar    1  UNL1        0.2079
     17 N          -0.1528    1.3938   21.5757 N.ar    1  UNL1       -0.1077
     18 N           0.6256    1.3576   22.8574 N.ar    1  UNL1       -0.0450
     19 N           0.9403    2.7711   23.2487 N.ar    1  UNL1       -0.1488
     20 C           1.7047    3.1996   24.4661 C.3     1  UNL1        0.1795
     21 N           0.3564    3.6808   22.2088 N.ar    1  UNL1       -0.1296
     22 C           6.0174    1.2452   17.0786 C.3     1  UNL1        0.0279
     23 C           5.0430    0.7153   18.0884 C.3     1  UNL1        0.1142
     24 N           5.4275   -0.4365   18.9691 N.am    1  UNL1       -0.2986
     25 C           5.2126   -1.8446   18.4989 C.2     1  UNL1        0.2552
     26 O           4.6057   -1.9189   17.1292 O.2     1  UNL1       -0.2723
     27 H           5.8210   -0.2682   19.8557 H       1  UNL1        0.1498
     28 C           5.5972   -2.9963   19.3796 C.3     1  UNL1        0.2443
     29 C           5.9817   -4.1480   20.2603 C.3     1  UNL1        0.0478
     30 O           6.9269   -2.3530   19.6403 O.3     1  UNL1       -0.3719
     31 H           7.3890   -2.8385   20.3415 H       1  UNL1        0.2111
     32 C           4.2675   -3.6396   19.1189 C.3     1  UNL1        0.4274
     33 F           2.9377   -4.2829   18.8581 F       1  UNL1       -0.1671
     34 F           3.4372   -2.6685   19.9049 F       1  UNL1       -0.1671
     35 F           4.9405   -4.6970   18.2950 F       1  UNL1       -0.1671
@<TRIPOS>BOND
     1    23    22    1
     2    23    24    1
     3    24    25   am
     4    25    26    2
     5    25    28    1
     6    28    29    1
     7    28    30    1
     8    28    32    1
     9    32    33    1
    10    32    34    1
    11    32    35    1
    12    23     1    1
    13     1     2   ar
    14     2     3   ar
    15     3     4   ar
    16     4     8    1
    17     8     9   ar
    18     9    10   ar
    19    10    11    1
    20    10    12   ar
    21    12    13   ar
    22    13    14    1
    23    13    15   ar
    24    15    16    1
    25    16    17   ar
    26    17    18   ar
    27    18    19   ar
    28    19    20    1
    29    19    21   ar
    30     4     5   ar
    31     5     6   ar
    32     6     7    1
    33     6     1   ar
    34    15     8   ar
    35    21    16   ar
    36    24    27    1
    37    30    31    1
@<TRIPOS>MOLECULE
*****
 35 37 0 0 0
SMALL
GASTEIGER

@<TRIPOS>ATOM
      1 C           5.3230   -0.3898   34.5356 C.ar    1  UNL1        0.1041
      2 N           6.0524    0.5187   33.5910 N.ar    1  UNL1       -0.2443
      3 C           5.8815    0.3542   32.1099 C.ar    1  UNL1        0.0986
      4 C           4.9812   -0.7189   31.5734 C.ar    1  UNL1        0.0216
      5 C           4.2517   -1.6274   32.5180 C.ar    1  UNL1        0.0325
      6 C           4.4226   -1.4629   33.9992 C.ar    1  UNL1        0.1552
      7 F           3.6932   -2.3715   34.9438 F       1  UNL1       -0.2029
      8 C           4.8102   -0.8834   30.0923 C.ar    1  UNL1        0.0077
      9 C           5.7447   -1.7696   29.3233 C.ar    1  UNL1        0.0117
     10 C           5.5738   -1.9341   27.8422 C.ar    1  UNL1        0.0599
     11 CL          6.5083   -2.8204   27.0732 Cl      1  UNL1       -0.0822
     12 C           4.4684   -1.2124   27.1300 C.ar    1  UNL1        0.0411
     13 C           3.5340   -0.3262   27.8990 C.ar    1  UNL1        0.1440
     14 F           2.4285    0.3955   27.1868 F       1  UNL1       -0.2040
     15 C           3.7049   -0.1617   29.3801 C.ar    1  UNL1        0.0669
     16 C           2.7703    0.7246   30.1490 C.ar    1  UNL1        0.2079
     17 N           1.3965    0.3554   30.6248 N.ar    1  UNL1       -0.1077
     18 N           0.8226    1.5382   31.3470 N.ar    1  UNL1       -0.0450
     19 N           1.8418    2.6384   31.3176 N.ar    1  UNL1       -0.1488
     20 C           1.6848    4.0021   31.9225 C.3     1  UNL1        0.1795
     21 N           3.0455    2.1355   30.5773 N.ar    1  UNL1       -0.1296
     22 C           6.8563   -0.3460   36.6325 C.3     1  UNL1        0.0279
     23 C           5.4939   -0.2253   36.0168 C.3     1  UNL1        0.1142
     24 N           4.3024    0.0599   36.8821 N.am    1  UNL1       -0.2986
     25 C           4.0306    1.4601   37.3465 C.2     1  UNL1        0.2552
     26 O           5.0464    2.4482   36.8549 O.2     1  UNL1       -0.2723
     27 H           3.6987   -0.6719   37.1454 H       1  UNL1        0.1498
     28 C           2.8390    1.7452   38.2119 C.3     1  UNL1        0.2443
     29 C           1.6475    2.0304   39.0772 C.3     1  UNL1        0.0478
     30 O           3.2129    0.5992   39.1045 O.3     1  UNL1       -0.3719
     31 H           2.6567    0.6134   39.8990 H       1  UNL1        0.2111
     32 C           2.4651    2.8912   37.3193 C.3     1  UNL1        0.4274
     33 F           2.0911    4.0374   36.4267 F       1  UNL1       -0.1671
     34 F           2.1997    2.0822   36.0843 F       1  UNL1       -0.1671
     35 F           2.6864    3.8471   38.4538 F       1  UNL1       -0.1671
@<TRIPOS>BOND
     1    23    22    1
     2    23    24    1
     3    24    25   am
     4    25    26    2
     5    25    28    1
     6    28    29    1
     7    28    30    1
     8    28    32    1
     9    32    33    1
    10    32    34    1
    11    32    35    1
    12    23     1    1
    13     1     2   ar
    14     2     3   ar
    15     3     4   ar
    16     4     8    1
    17     8     9   ar
    18     9    10   ar
    19    10    11    1
    20    10    12   ar
    21    12    13   ar
    22    13    14    1
    23    13    15   ar
    24    15    16    1
    25    16    17   ar
    26    17    18   ar
    27    18    19   ar
    28    19    20    1
    29    19    21   ar
    30     4     5   ar
    31     5     6   ar
    32     6     7    1
    33     6     1   ar
    34    15     8   ar
    35    21    16   ar
    36    24    27    1
    37    30    31    1
@<TRIPOS>MOLECULE
*****
 35 37 0 0 0
SMALL
GASTEIGER

@<TRIPOS>ATOM
      1 C           3.9729   -0.3136   25.1687 C.ar    1  UNL1        0.1041
      2 N           3.7533   -1.6539   24.5322 N.ar    1  UNL1       -0.2443
      3 C           3.9969   -1.8357   23.0634 C.ar    1  UNL1        0.0986
      4 C           4.4601   -0.6770   22.2309 C.ar    1  UNL1        0.0216
      5 C           4.6797    0.6633   22.8674 C.ar    1  UNL1        0.0325
      6 C           4.4361    0.8451   24.3363 C.ar    1  UNL1        0.1552
      7 F           4.6557    2.1855   24.9728 F       1  UNL1       -0.2029
      8 C           4.7037   -0.8587   20.7621 C.ar    1  UNL1        0.0077
      9 C           6.0137   -1.4091   20.2815 C.ar    1  UNL1        0.0117
     10 C           6.2574   -1.5908   18.8126 C.ar    1  UNL1        0.0599
     11 CL          7.5675   -2.1411   18.3321 Cl      1  UNL1       -0.0822
     12 C           5.1909   -1.2222   17.8243 C.ar    1  UNL1        0.0411
     13 C           3.8809   -0.6719   18.3048 C.ar    1  UNL1        0.1440
     14 F           2.8144   -0.3033   17.3165 F       1  UNL1       -0.2040
     15 C           3.6373   -0.4902   19.7737 C.ar    1  UNL1        0.0669
     16 C           2.3272    0.0602   20.2542 C.ar    1  UNL1        0.2079
     17 N           1.0324   -0.6925   20.3385 N.ar    1  UNL1       -0.1077
     18 N          -0.0131    0.2419   20.8711 N.ar    1  UNL1       -0.0450
     19 N           0.6355    1.5721   21.1161 N.ar    1  UNL1       -0.1488
     20 C          -0.0431    2.7991   21.6489 C.3     1  UNL1        0.1795
     21 N           2.0819    1.4597   20.7349 N.ar    1  UNL1       -0.1296
     22 C           4.8507    0.2979   27.5363 C.3     1  UNL1        0.0279
     23 C           3.7293   -0.1318   26.6376 C.3     1  UNL1        0.1142
     24 N           2.3643   -0.3799   27.2078 N.am    1  UNL1       -0.2986
     25 C           1.4430    0.7729   27.4766 C.2     1  UNL1        0.2552
     26 O           2.0442    2.0996   27.1185 O.2     1  UNL1       -0.2723
     27 H           2.0731   -1.2993   27.4056 H       1  UNL1        0.1498
     28 C           0.0779    0.5248   28.0469 C.3     1  UNL1        0.2443
     29 C          -1.2872    0.2768   28.6170 C.3     1  UNL1        0.0478
     30 O           0.6524   -0.5041   28.9748 O.3     1  UNL1       -0.3719
     31 H          -0.0224   -0.7723   29.6179 H       1  UNL1        0.2111
     32 C          -0.4967    1.5537   27.1189 C.3     1  UNL1        0.4274
     33 F          -1.0713    2.5827   26.1909 F       1  UNL1       -0.1671
     34 F          -0.3856    0.7466   25.8595 F       1  UNL1       -0.1671
     35 F          -0.6792    2.4933   28.2738 F       1  UNL1       -0.1671
@<TRIPOS>BOND
     1    23    22    1
     2    23    24    1
     3    24    25   am
     4    25    26    2
     5    25    28    1
     6    28    29    1
     7    28    30    1
     8    28    32    1
     9    32    33    1
    10    32    34    1
    11    32    35    1
    12    23     1    1
    13     1     2   ar
    14     2     3   ar
    15     3     4   ar
    16     4     8    1
    17     8     9   ar
    18     9    10   ar
    19    10    11    1
    20    10    12   ar
    21    12    13   ar
    22    13    14    1
    23    13    15   ar
    24    15    16    1
    25    16    17   ar
    26    17    18   ar
    27    18    19   ar
    28    19    20    1
    29    19    21   ar
    30     4     5   ar
    31     5     6   ar
    32     6     7    1
    33     6     1   ar
    34    15     8   ar
    35    21    16   ar
    36    24    27    1
    37    30    31    1
@<TRIPOS>MOLECULE
*****
 35 37 0 0 0
SMALL
GASTEIGER

@<TRIPOS>ATOM
      1 C           5.8147   -3.9603   20.8947 C.ar    1  UNL1        0.1041
      2 N           7.1867   -4.4834   21.2012 N.ar    1  UNL1       -0.2443
      3 C           7.6708   -4.5328   22.6201 C.ar    1  UNL1        0.0986
      4 C           6.7829   -4.0592   23.7324 C.ar    1  UNL1        0.0216
      5 C           5.4109   -3.5361   23.4258 C.ar    1  UNL1        0.0325
      6 C           4.9268   -3.4867   22.0070 C.ar    1  UNL1        0.1552
      7 F           3.5548   -2.9636   21.7004 F       1  UNL1       -0.2029
      8 C           7.2670   -4.1086   25.1513 C.ar    1  UNL1        0.0077
      9 C           7.2601   -5.4076   25.9013 C.ar    1  UNL1        0.0117
     10 C           7.7442   -5.4570   27.3201 C.ar    1  UNL1        0.0599
     11 CL          7.7373   -6.7561   28.0701 Cl      1  UNL1       -0.0822
     12 C           8.2352   -4.2075   27.9890 C.ar    1  UNL1        0.0411
     13 C           8.2421   -2.9085   27.2391 C.ar    1  UNL1        0.1440
     14 F           8.7331   -1.6588   27.9079 F       1  UNL1       -0.2040
     15 C           7.7580   -2.8590   25.8202 C.ar    1  UNL1        0.0669
     16 C           7.7649   -1.5600   25.0702 C.ar    1  UNL1        0.2079
     17 N           8.8401   -1.0858   24.1380 N.ar    1  UNL1       -0.1077
     18 N           8.4376    0.2602   23.6124 N.ar    1  UNL1       -0.0450
     19 N           7.1135    0.6179   24.2198 N.ar    1  UNL1       -0.1488
     20 C           6.3408    1.8791   23.9701 C.3     1  UNL1        0.1795
     21 N           6.6978   -0.5070   25.1208 N.ar    1  UNL1       -0.1296
     22 C           4.3647   -4.9442   18.9764 C.3     1  UNL1        0.0279
     23 C           5.3306   -3.9109   19.4758 C.3     1  UNL1        0.1142
     24 N           5.8123   -2.8282   18.5562 N.am    1  UNL1       -0.2986
     25 C           4.9919   -1.5873   18.3641 C.2     1  UNL1        0.2552
     26 O           3.7232   -1.5937   19.1642 O.2     1  UNL1       -0.2723
     27 H           6.6671   -2.9320   18.0788 H       1  UNL1        0.1498
     28 C           5.4737   -0.5045   17.4445 C.3     1  UNL1        0.2443
     29 C           5.9555    0.5782   16.5249 C.3     1  UNL1        0.0478
     30 O           6.7949   -1.2027   17.3146 O.3     1  UNL1       -0.3719
     31 H           7.3192   -0.7758   16.6190 H       1  UNL1        0.2111
     32 C           4.1525    0.1936   17.5743 C.3     1  UNL1        0.4274
     33 F           2.8312    0.8918   17.7042 F       1  UNL1       -0.1671
     34 F           4.5546    1.1454   18.6618 F       1  UNL1       -0.1671
     35 F           3.5850   -0.6794   16.4947 F       1  UNL1       -0.1671
@<TRIPOS>BOND
     1    23    22    1
     2    23    24    1
     3    24    25   am
     4    25    26    2
     5    25    28    1
     6    28    29    1
     7    28    30    1
     8    28    32    1
     9    32    33    1
    10    32    34    1
    11    32    35    1
    12    23     1    1
    13     1     2   ar
    14     2     3   ar
    15     3     4   ar
    16     4     8    1
    17     8     9   ar
    18     9    10   ar
    19    10    11    1
    20    10    12   ar
    21    12    13   ar
    22    13    14    1
    23    13    15   ar
    24    15    16    1
    25    16    17   ar
    26    17    18   ar
    27    18    19   ar
    28    19    20    1
    29    19    21   ar
    30     4     5   ar
    31     5     6   ar
    32     6     7    1
    33     6     1   ar
    34    15     8   ar
    35    21    16   ar
    36    24    27    1
    37    30    31    1
@<TRIPOS>MOLECULE
*****
 35 37 0 0 0
SMALL
GASTEIGER

@<TRIPOS>ATOM
      1 C           2.8333    0.8906   20.6533 C.ar    1  UNL1        0.1041
      2 N           3.1491    2.0843   21.5049 N.ar    1  UNL1       -0.2443
      3 C           2.1480    2.5762   22.5078 C.ar    1  UNL1        0.0986
      4 C           0.8310    1.8743   22.6590 C.ar    1  UNL1        0.0216
      5 C           0.5152    0.6806   21.8073 C.ar    1  UNL1        0.0325
      6 C           1.5163    0.1888   20.8045 C.ar    1  UNL1        0.1552
      7 F           1.2005   -1.0049   19.9528 F       1  UNL1       -0.2029
      8 C          -0.1702    2.3662   23.6618 C.ar    1  UNL1        0.0077
      9 C          -0.0459    1.9686   25.1028 C.ar    1  UNL1        0.0117
     10 C          -1.0471    2.4604   26.1056 C.ar    1  UNL1        0.0599
     11 CL         -0.9227    2.0628   27.5467 Cl      1  UNL1       -0.0822
     12 C          -2.1726    3.3499   25.6675 C.ar    1  UNL1        0.0411
     13 C          -2.2970    3.7475   24.2266 C.ar    1  UNL1        0.1440
     14 F          -3.4226    4.6369   23.7884 F       1  UNL1       -0.2040
     15 C          -1.2958    3.2556   23.2237 C.ar    1  UNL1        0.0669
     16 C          -1.4202    3.6532   21.7827 C.ar    1  UNL1        0.2079
     17 N          -2.2221    2.9373   20.7366 N.ar    1  UNL1       -0.1077
     18 N          -2.0621    3.6781   19.4422 N.ar    1  UNL1       -0.0450
     19 N          -1.1612    4.8520   19.6883 N.ar    1  UNL1       -0.1488
     20 C          -0.7324    5.8637   18.6672 C.3     1  UNL1        0.1795
     21 N          -0.7645    4.8366   21.1348 N.ar    1  UNL1       -0.1296
     22 C           3.8212    0.9381   18.2508 C.3     1  UNL1        0.0279
     23 C           3.8345    0.3988   19.6504 C.3     1  UNL1        0.1142
     24 N           4.8490   -0.6324   20.0472 N.am    1  UNL1       -0.2986
     25 C           4.7175   -2.0427   19.5535 C.2     1  UNL1        0.2552
     26 O           3.5179   -2.2472   18.6765 O.2     1  UNL1       -0.2723
     27 H           5.6012   -0.3836   20.6316 H       1  UNL1        0.1498
     28 C           5.7321   -3.0739   19.9503 C.3     1  UNL1        0.2443
     29 C           6.7465   -4.1051   20.3470 C.3     1  UNL1        0.0478
     30 O           6.8022   -2.0228   19.9458 O.3     1  UNL1       -0.3719
     31 H           7.6169   -2.3893   20.3237 H       1  UNL1        0.2111
     32 C           4.6619   -4.1250   19.9547 C.3     1  UNL1        0.4274
     33 F           3.5917   -5.1761   19.9592 F       1  UNL1       -0.1671
     34 F           5.0092   -4.7452   18.6338 F       1  UNL1       -0.1671
     35 F           4.1806   -3.6292   21.2861 F       1  UNL1       -0.1671
@<TRIPOS>BOND
     1    23    22    1
     2    23    24    1
     3    24    25   am
     4    25    26    2
     5    25    28    1
     6    28    29    1
     7    28    30    1
     8    28    32    1
     9    32    33    1
    10    32    34    1
    11    32    35    1
    12    23     1    1
    13     1     2   ar
    14     2     3   ar
    15     3     4   ar
    16     4     8    1
    17     8     9   ar
    18     9    10   ar
    19    10    11    1
    20    10    12   ar
    21    12    13   ar
    22    13    14    1
    23    13    15   ar
    24    15    16    1
    25    16    17   ar
    26    17    18   ar
    27    18    19   ar
    28    19    20    1
    29    19    21   ar
    30     4     5   ar
    31     5     6   ar
    32     6     7    1
    33     6     1   ar
    34    15     8   ar
    35    21    16   ar
    36    24    27    1
    37    30    31    1
