@<TRIPOS>MOLECULE
*****
 37 39 0 0 0
SMALL
GASTEIGER

@<TRIPOS>ATOM
      1 C           1.8782    1.5981   30.1777 C.ar    1  UNL1       -0.0145
      2 C           0.9227    0.6047   29.5858 C.ar    1  UNL1       -0.0026
      3 C           1.0949    0.1527   28.1659 C.ar    1  UNL1        0.0144
      4 C           2.2225    0.6941   27.3379 C.ar    1  UNL1        0.0505
      5 C           3.1779    1.6874   27.9299 C.ar    1  UNL1        0.0144
      6 C           3.0058    2.1394   29.3497 C.ar    1  UNL1       -0.0026
      7 N           2.3947    0.2420   25.9181 N.am    1  UNL1       -0.2804
      8 C           3.4462   -0.7716   25.5759 C.2     1  UNL1        0.2495
      9 O           4.3254   -1.3332   26.6537 O.2     1  UNL1       -0.2698
     10 H           1.8176    0.6106   25.2107 H       1  UNL1        0.1552
     11 C           3.6184   -1.2236   24.1561 C.ar    1  UNL1        0.0537
     12 C           2.8536   -0.5488   23.0562 C.ar    1  UNL1        0.0045
     13 C           3.0258   -1.0009   21.6363 C.ar    1  UNL1        0.0040
     14 C           3.9627   -2.1277   21.3163 C.ar    1  UNL1        0.0714
     15 C           4.7275   -2.8026   22.4162 C.ar    1  UNL1        0.0040
     16 C           4.5553   -2.3505   23.8361 C.ar    1  UNL1        0.0045
     17 C           4.1349   -2.5797   19.8965 C.3     1  UNL1        0.4186
     18 F           4.3070   -3.0318   18.4766 F       1  UNL1       -0.1659
     19 F           2.6527   -2.4845   19.6864 F       1  UNL1       -0.1659
     20 F           5.6170   -2.6749   20.1065 F       1  UNL1       -0.1659
     21 C           1.7060    2.0501   31.5975 C.3     1  UNL1        0.0920
     22 C           4.1541   -0.4096   33.5228 C.ar    1  UNL1        0.1321
     23 N           3.2995    0.1788   32.4396 N.ar    1  UNL1       -0.2159
     24 C           2.5607    1.4617   32.6808 C.ar    1  UNL1        0.1463
     25 N           2.6764    2.1562   34.0053 N.ar    1  UNL1       -0.2159
     26 C           3.5310    1.5678   35.0885 C.ar    1  UNL1        0.1321
     27 C           4.2699    0.2848   34.8472 C.ar    1  UNL1        0.0466
     28 C           6.3167   -1.6609   32.8104 C.3     1  UNL1        0.1136
     29 N           4.8930   -1.6926   33.2815 N.pl3   1  UNL1       -0.2899
     30 C           4.5084   -2.7079   33.4112 C.3     1  UNL1        0.1136
     31 N           3.6468    2.2623   36.4130 N.pl3   1  UNL1       -0.2899
     32 C           2.7062    1.9127   37.5279 C.3     1  UNL1        0.1136
     33 C           4.7032    3.3063   36.6226 C.3     1  UNL1        0.1136
     34 C           5.1245   -0.3036   35.9305 C.3     1  UNL1        0.0736
     35 C           6.5644    0.0989   36.0516 C.2     1  UNL1        0.0549
     36 O           7.4214   -0.4962   37.1293 O.co2   1  UNL1       -0.5488
     37 O           7.1041    0.8107   35.4209 O.co2   1  UNL1       -0.5488
@<TRIPOS>UNITY_ATOM_ATTR
36 1
charge -1
@<TRIPOS>BOND
     1    28    29    1
     2    29    30    1
     3    29    22    1
     4    22    23   ar
     5    23    24   ar
     6    24    21    1
     7    21     1    1
     8     1     2   ar
     9     2     3   ar
    10     3     4   ar
    11     4     7    1
    12     7     8   am
    13     8     9    2
    14     8    11    1
    15    11    12   ar
    16    12    13   ar
    17    13    14   ar
    18    14    17    1
    19    17    18    1
    20    17    19    1
    21    17    20    1
    22    14    15   ar
    23    15    16   ar
    24     4     5   ar
    25     5     6   ar
    26    24    25   ar
    27    25    26   ar
    28    26    31    1
    29    31    32    1
    30    31    33    1
    31    26    27   ar
    32    27    34    1
    33    34    35    1
    34    35    36   ar
    35    35    37   ar
    36    27    22   ar
    37     6     1   ar
    38    16    11   ar
    39     7    10    1
@<TRIPOS>MOLECULE
*****
 37 39 0 0 0
SMALL
GASTEIGER

@<TRIPOS>ATOM
      1 C           0.6220    1.9929   30.0501 C.ar    1  UNL1       -0.0145
      2 C           1.6074    2.7591   29.2182 C.ar    1  UNL1       -0.0026
      3 C           1.8179    2.3938   27.7787 C.ar    1  UNL1        0.0144
      4 C           1.0430    1.2622   27.1710 C.ar    1  UNL1        0.0505
      5 C           0.0577    0.4961   28.0029 C.ar    1  UNL1        0.0144
      6 C          -0.1528    0.8614   29.4424 C.ar    1  UNL1       -0.0026
      7 N           1.2535    0.8969   25.7315 N.am    1  UNL1       -0.2804
      8 C           2.4791    0.1346   25.3227 C.2     1  UNL1        0.2495
      9 O           3.4940   -0.2623   26.3533 O.2     1  UNL1       -0.2698
     10 H           0.5874    1.1574   25.0550 H       1  UNL1        0.1552
     11 C           2.6896   -0.2307   23.8831 C.ar    1  UNL1        0.0537
     12 C           3.6183   -1.3518   23.5220 C.ar    1  UNL1        0.0045
     13 C           3.8288   -1.7172   22.0824 C.ar    1  UNL1        0.0040
     14 C           3.1106   -0.9614   21.0041 C.ar    1  UNL1        0.0714
     15 C           2.1818    0.1598   21.3653 C.ar    1  UNL1        0.0040
     16 C           1.9712    0.5251   22.8048 C.ar    1  UNL1        0.0045
     17 C           3.3211   -1.3267   19.5646 C.3     1  UNL1        0.4186
     18 F           3.5316   -1.6920   18.1251 F       1  UNL1       -0.1659
     19 F           3.2014   -2.7801   19.9159 F       1  UNL1       -0.1659
     20 F           3.4407    0.1267   19.2132 F       1  UNL1       -0.1659
     21 C           0.4115    2.3582   31.4896 C.3     1  UNL1        0.0920
     22 C           2.7149    2.8340   34.6862 C.ar    1  UNL1        0.1321
     23 N           1.6112    3.0389   33.6913 N.ar    1  UNL1       -0.2159
     24 C           1.5152    2.1532   32.4845 C.ar    1  UNL1        0.1463
     25 N           2.5229    1.0625   32.2727 N.ar    1  UNL1       -0.2159
     26 C           3.6266    0.8576   33.2676 C.ar    1  UNL1        0.1321
     27 C           3.7226    1.7433   34.4743 C.ar    1  UNL1        0.0466
     28 C           3.7371    4.8996   35.8856 C.3     1  UNL1        0.1136
     29 N           2.8108    3.7197   35.8930 N.pl3   1  UNL1       -0.2899
     30 C           2.2625    3.6129   36.8330 C.3     1  UNL1        0.1136
     31 N           4.6344   -0.2332   33.0558 N.pl3   1  UNL1       -0.2899
     32 C           4.3693   -1.6120   33.5836 C.3     1  UNL1        0.1136
     33 C           5.9071    0.0550   32.3162 C.3     1  UNL1        0.1136
     34 C           4.8263    1.5383   35.4693 C.3     1  UNL1        0.0736
     35 C           4.6678    0.5295   36.5680 C.2     1  UNL1        0.0549
     36 O           5.6917   -0.5520   36.7466 O.co2   1  UNL1       -0.5488
     37 O           3.8566    0.4749   37.2993 O.co2   1  UNL1       -0.5488
@<TRIPOS>UNITY_ATOM_ATTR
36 1
charge -1
@<TRIPOS>BOND
     1    28    29    1
     2    29    30    1
     3    29    22    1
     4    22    23   ar
     5    23    24   ar
     6    24    21    1
     7    21     1    1
     8     1     2   ar
     9     2     3   ar
    10     3     4   ar
    11     4     7    1
    12     7     8   am
    13     8     9    2
    14     8    11    1
    15    11    12   ar
    16    12    13   ar
    17    13    14   ar
    18    14    17    1
    19    17    18    1
    20    17    19    1
    21    17    20    1
    22    14    15   ar
    23    15    16   ar
    24     4     5   ar
    25     5     6   ar
    26    24    25   ar
    27    25    26   ar
    28    26    31    1
    29    31    32    1
    30    31    33    1
    31    26    27   ar
    32    27    34    1
    33    34    35    1
    34    35    36   ar
    35    35    37   ar
    36    27    22   ar
    37     6     1   ar
    38    16    11   ar
    39     7    10    1
@<TRIPOS>MOLECULE
*****
 37 39 0 0 0
SMALL
GASTEIGER

@<TRIPOS>ATOM
      1 C           0.9052    1.9334   30.0920 C.ar    1  UNL1       -0.0145
      2 C           2.1893    2.3705   29.4515 C.ar    1  UNL1       -0.0026
      3 C           2.5798    1.8290   28.1083 C.ar    1  UNL1        0.0144
      4 C           1.6862    0.8504   27.4055 C.ar    1  UNL1        0.0505
      5 C           0.4022    0.4133   28.0459 C.ar    1  UNL1        0.0144
      6 C           0.0117    0.9548   29.3891 C.ar    1  UNL1       -0.0026
      7 N           2.0767    0.3089   26.0622 N.am    1  UNL1       -0.2804
      8 C           1.5483    0.9494   24.8129 C.2     1  UNL1        0.2495
      9 O           0.6295    2.1313   24.9069 O.2     1  UNL1       -0.2698
     10 H           2.6798   -0.4668   26.0005 H       1  UNL1        0.1552
     11 C           1.9388    0.4079   23.4697 C.ar    1  UNL1        0.0537
     12 C           1.2708    0.9241   22.2298 C.ar    1  UNL1        0.0045
     13 C           1.6613    0.3827   20.8866 C.ar    1  UNL1        0.0040
     14 C           2.7198   -0.6751   20.7832 C.ar    1  UNL1        0.0714
     15 C           3.3879   -1.1914   22.0230 C.ar    1  UNL1        0.0040
     16 C           2.9974   -0.6499   23.3663 C.ar    1  UNL1        0.0045
     17 C           3.1103   -1.2165   19.4399 C.3     1  UNL1        0.4186
     18 F           3.5008   -1.7580   18.0967 F       1  UNL1       -0.1659
     19 F           3.2303    0.1820   18.9110 F       1  UNL1       -0.1659
     20 F           2.9903   -2.6151   19.9688 F       1  UNL1       -0.1659
     21 C           0.5147    2.4749   31.4352 C.3     1  UNL1        0.0920
     22 C           3.4424    1.2233   33.8043 C.ar    1  UNL1        0.1321
     23 N           2.4755    1.2887   32.6594 N.ar    1  UNL1       -0.2159
     24 C           1.4816    2.4094   32.5802 C.ar    1  UNL1        0.1463
     25 N           1.4547    3.4647   33.6458 N.ar    1  UNL1       -0.2159
     26 C           2.4215    3.3992   34.7907 C.ar    1  UNL1        0.1321
     27 C           3.4154    2.2785   34.8700 C.ar    1  UNL1        0.0466
     28 C           5.8506    0.3212   33.4345 C.3     1  UNL1        0.1136
     29 N           4.4362    0.1026   33.8836 N.pl3   1  UNL1       -0.2899
     30 C           4.2555   -0.9129   34.2469 C.3     1  UNL1        0.1136
     31 N           2.3946    4.4545   35.8565 N.pl3   1  UNL1       -0.2899
     32 C           3.3107    5.6386   35.7628 C.3     1  UNL1        0.1136
     33 C           1.4516    4.3257   37.0158 C.3     1  UNL1        0.1136
     34 C           4.3823    2.2131   36.0150 C.3     1  UNL1        0.0736
     35 C           4.0744    1.3585   37.2086 C.2     1  UNL1        0.0549
     36 O           2.6580    1.2097   37.6793 O.co2   1  UNL1       -0.5488
     37 O           4.7881    0.7963   37.8172 O.co2   1  UNL1       -0.5488
@<TRIPOS>UNITY_ATOM_ATTR
36 1
charge -1
@<TRIPOS>BOND
     1    28    29    1
     2    29    30    1
     3    29    22    1
     4    22    23   ar
     5    23    24   ar
     6    24    21    1
     7    21     1    1
     8     1     2   ar
     9     2     3   ar
    10     3     4   ar
    11     4     7    1
    12     7     8   am
    13     8     9    2
    14     8    11    1
    15    11    12   ar
    16    12    13   ar
    17    13    14   ar
    18    14    17    1
    19    17    18    1
    20    17    19    1
    21    17    20    1
    22    14    15   ar
    23    15    16   ar
    24     4     5   ar
    25     5     6   ar
    26    24    25   ar
    27    25    26   ar
    28    26    31    1
    29    31    32    1
    30    31    33    1
    31    26    27   ar
    32    27    34    1
    33    34    35    1
    34    35    36   ar
    35    35    37   ar
    36    27    22   ar
    37     6     1   ar
    38    16    11   ar
    39     7    10    1
@<TRIPOS>MOLECULE
*****
 37 39 0 0 0
SMALL
GASTEIGER

@<TRIPOS>ATOM
      1 C           6.8015   -3.7856   25.6936 C.ar    1  UNL1       -0.0145
      2 C           7.2046   -2.4000   26.1032 C.ar    1  UNL1       -0.0026
      3 C           7.2041   -2.0166   27.5533 C.ar    1  UNL1        0.0144
      4 C           6.8006   -3.0188   28.5939 C.ar    1  UNL1        0.0505
      5 C           6.3976   -4.4043   28.1844 C.ar    1  UNL1        0.0144
      6 C           6.3980   -4.7877   26.7342 C.ar    1  UNL1       -0.0026
      7 N           6.8001   -2.6354   30.0441 N.am    1  UNL1       -0.2804
      8 C           5.7374   -1.7211   30.5778 C.2     1  UNL1        0.2495
      9 O           4.6752   -1.1903   29.6614 O.2     1  UNL1       -0.2698
     10 H           7.4973   -2.9838   30.6456 H       1  UNL1        0.1552
     11 C           5.7369   -1.3377   32.0280 C.ar    1  UNL1        0.0537
     12 C           6.9018   -0.5908   32.6067 C.ar    1  UNL1        0.0045
     13 C           6.9014   -0.2074   34.0568 C.ar    1  UNL1        0.0040
     14 C           5.7359   -0.5709   34.9283 C.ar    1  UNL1        0.0714
     15 C           4.5709   -1.3179   34.3497 C.ar    1  UNL1        0.0040
     16 C           4.5714   -1.7013   32.8995 C.ar    1  UNL1        0.0045
     17 C           5.7355   -0.1875   36.3785 C.3     1  UNL1        0.4186
     18 F           5.7350    0.1959   37.8287 F       1  UNL1       -0.1659
     19 F           7.1970    0.1390   36.2927 F       1  UNL1       -0.1659
     20 F           4.2739   -0.5140   36.4644 F       1  UNL1       -0.1659
     21 C           6.8020   -4.1690   24.2434 C.3     1  UNL1        0.0920
     22 C           4.1916   -1.5799   22.7491 C.ar    1  UNL1        0.1321
     23 N           5.1367   -2.2497   23.7022 N.ar    1  UNL1       -0.2159
     24 C           5.8569   -3.4993   23.2903 C.ar    1  UNL1        0.1463
     25 N           5.6322   -4.0792   21.9253 N.ar    1  UNL1       -0.2159
     26 C           4.6872   -3.4094   20.9723 C.ar    1  UNL1        0.1321
     27 C           3.9669   -2.1598   21.3842 C.ar    1  UNL1        0.0466
     28 C           4.0536    1.0130   22.8351 C.3     1  UNL1        0.1136
     29 N           3.4713   -0.3303   23.1610 N.pl3   1  UNL1       -0.2899
     30 C           2.5217   -0.2652   23.6993 C.3     1  UNL1        0.1136
     31 N           4.4624   -3.9893   19.6072 N.pl3   1  UNL1       -0.2899
     32 C           3.4136   -5.0421   19.4030 C.3     1  UNL1        0.1136
     33 C           5.2864   -3.5164   18.4465 C.3     1  UNL1        0.1136
     34 C           3.0218   -1.4901   20.4310 C.3     1  UNL1        0.0736
     35 C           3.5339   -0.4643   19.4638 C.2     1  UNL1        0.0549
     36 O           2.6328    0.0700   18.3903 O.co2   1  UNL1       -0.5488
     37 O           4.5364   -0.0286   19.4361 O.co2   1  UNL1       -0.5488
@<TRIPOS>UNITY_ATOM_ATTR
36 1
charge -1
@<TRIPOS>BOND
     1    28    29    1
     2    29    30    1
     3    29    22    1
     4    22    23   ar
     5    23    24   ar
     6    24    21    1
     7    21     1    1
     8     1     2   ar
     9     2     3   ar
    10     3     4   ar
    11     4     7    1
    12     7     8   am
    13     8     9    2
    14     8    11    1
    15    11    12   ar
    16    12    13   ar
    17    13    14   ar
    18    14    17    1
    19    17    18    1
    20    17    19    1
    21    17    20    1
    22    14    15   ar
    23    15    16   ar
    24     4     5   ar
    25     5     6   ar
    26    24    25   ar
    27    25    26   ar
    28    26    31    1
    29    31    32    1
    30    31    33    1
    31    26    27   ar
    32    27    34    1
    33    34    35    1
    34    35    36   ar
    35    35    37   ar
    36    27    22   ar
    37     6     1   ar
    38    16    11   ar
    39     7    10    1
@<TRIPOS>MOLECULE
*****
 37 39 0 0 0
SMALL
GASTEIGER

@<TRIPOS>ATOM
      1 C           0.4976    2.0250   29.9591 C.ar    1  UNL1       -0.0145
      2 C           0.9097    3.1647   29.0750 C.ar    1  UNL1       -0.0026
      3 C           0.3488    3.2791   27.6886 C.ar    1  UNL1        0.0144
      4 C          -0.6242    2.2539   27.1861 C.ar    1  UNL1        0.0505
      5 C          -1.0361    1.1143   28.0702 C.ar    1  UNL1        0.0144
      6 C          -0.4752    0.9999   29.4566 C.ar    1  UNL1       -0.0026
      7 N          -1.1850    2.3683   25.7997 N.am    1  UNL1       -0.2804
      8 C          -2.4639    3.1171   25.5674 C.2     1  UNL1        0.2495
      9 O          -3.1817    3.7515   26.7216 O.2     1  UNL1       -0.2698
     10 H          -0.7139    1.9519   25.0421 H       1  UNL1        0.1552
     11 C          -3.0248    3.2316   24.1809 C.ar    1  UNL1        0.0537
     12 C          -4.5041    3.1214   23.9589 C.ar    1  UNL1        0.0045
     13 C          -5.0650    3.2358   22.5724 C.ar    1  UNL1        0.0040
     14 C          -4.1466    3.4604   21.4080 C.ar    1  UNL1        0.0714
     15 C          -2.6671    3.5706   21.6300 C.ar    1  UNL1        0.0040
     16 C          -2.1062    3.4562   23.0165 C.ar    1  UNL1        0.0045
     17 C          -4.7075    3.5748   20.0215 C.3     1  UNL1        0.4186
     18 F          -5.2684    3.6892   18.6350 F       1  UNL1       -0.1659
     19 F          -3.3190    3.5272   19.4559 F       1  UNL1       -0.1659
     20 F          -6.0959    3.6224   20.5871 F       1  UNL1       -0.1659
     21 C           1.0585    1.9106   31.3456 C.3     1  UNL1        0.0920
     22 C          -0.0516    5.3709   32.9406 C.ar    1  UNL1        0.1321
     23 N           0.0320    4.2060   31.9993 N.ar    1  UNL1       -0.2159
     24 C           0.9750    3.0755   32.2869 C.ar    1  UNL1        0.1463
     25 N           1.8345    3.1099   33.5157 N.ar    1  UNL1       -0.2159
     26 C           1.7509    4.2748   34.4570 C.ar    1  UNL1        0.1321
     27 C           0.8079    5.4053   34.1694 C.ar    1  UNL1        0.0466
     28 C          -0.5120    7.7089   31.9053 C.3     1  UNL1        0.1136
     29 N          -0.9946    6.5014   32.6530 N.pl3   1  UNL1       -0.2899
     30 C          -2.0497    6.5656   32.9328 C.3     1  UNL1        0.1136
     31 N           2.6104    4.3093   35.6859 N.pl3   1  UNL1       -0.2899
     32 C           3.8857    5.0989   35.6873 C.3     1  UNL1        0.1136
     33 C           2.1945    3.5541   36.9134 C.3     1  UNL1        0.1136
     34 C           0.7244    6.5702   35.1107 C.3     1  UNL1        0.0736
     35 C          -0.2640    6.5534   36.2389 C.2     1  UNL1        0.0549
     36 O          -1.4671    7.4482   36.1954 O.co2   1  UNL1       -0.5488
     37 O          -0.2211    5.9389   37.1424 O.co2   1  UNL1       -0.5488
@<TRIPOS>UNITY_ATOM_ATTR
36 1
charge -1
@<TRIPOS>BOND
     1    28    29    1
     2    29    30    1
     3    29    22    1
     4    22    23   ar
     5    23    24   ar
     6    24    21    1
     7    21     1    1
     8     1     2   ar
     9     2     3   ar
    10     3     4   ar
    11     4     7    1
    12     7     8   am
    13     8     9    2
    14     8    11    1
    15    11    12   ar
    16    12    13   ar
    17    13    14   ar
    18    14    17    1
    19    17    18    1
    20    17    19    1
    21    17    20    1
    22    14    15   ar
    23    15    16   ar
    24     4     5   ar
    25     5     6   ar
    26    24    25   ar
    27    25    26   ar
    28    26    31    1
    29    31    32    1
    30    31    33    1
    31    26    27   ar
    32    27    34    1
    33    34    35    1
    34    35    36   ar
    35    35    37   ar
    36    27    22   ar
    37     6     1   ar
    38    16    11   ar
    39     7    10    1
@<TRIPOS>MOLECULE
*****
 37 39 0 0 0
SMALL
GASTEIGER

@<TRIPOS>ATOM
      1 C           0.6065    2.0944   29.7315 C.ar    1  UNL1       -0.0145
      2 C          -0.2541    0.9874   29.1986 C.ar    1  UNL1       -0.0026
      3 C          -0.9026    1.1232   27.8528 C.ar    1  UNL1        0.0144
      4 C          -0.6904    2.3660   27.0400 C.ar    1  UNL1        0.0505
      5 C           0.1702    3.4729   27.5730 C.ar    1  UNL1        0.0144
      6 C           0.8186    3.3371   28.9188 C.ar    1  UNL1       -0.0026
      7 N          -1.3389    2.5017   25.6943 N.am    1  UNL1       -0.2804
      8 C          -2.6628    3.1952   25.5663 C.2     1  UNL1        0.2495
      9 O          -3.3382    3.7529   26.7839 O.2     1  UNL1       -0.2698
     10 H          -0.8956    2.1357   24.8951 H       1  UNL1        0.1552
     11 C          -3.3113    3.3310   24.2205 C.ar    1  UNL1        0.0537
     12 C          -2.4702    3.5858   23.0050 C.ar    1  UNL1        0.0045
     13 C          -3.1187    3.7216   21.6592 C.ar    1  UNL1        0.0040
     14 C          -4.6083    3.6026   21.5290 C.ar    1  UNL1        0.0714
     15 C          -5.4494    3.3478   22.7446 C.ar    1  UNL1        0.0040
     16 C          -4.8010    3.2120   24.0903 C.ar    1  UNL1        0.0045
     17 C          -5.2567    3.7384   20.1833 C.3     1  UNL1        0.4186
     18 F          -5.9052    3.8742   18.8375 F       1  UNL1       -0.1659
     19 F          -3.9429    3.4468   19.5208 F       1  UNL1       -0.1659
     20 F          -6.5705    4.0299   20.8457 F       1  UNL1       -0.1659
     21 C           1.2550    1.9586   31.0773 C.3     1  UNL1        0.0920
     22 C           4.8694    0.5261   30.2809 C.ar    1  UNL1        0.1321
     23 N           3.5832    1.2852   30.1414 N.ar    1  UNL1       -0.2159
     24 C           2.5412    1.1994   31.2169 C.ar    1  UNL1        0.1463
     25 N           2.7853    0.3545   32.4320 N.ar    1  UNL1       -0.2159
     26 C           4.0714   -0.4046   32.5715 C.ar    1  UNL1        0.1321
     27 C           5.1135   -0.3188   31.4960 C.ar    1  UNL1        0.0466
     28 C           7.0386    1.5937   29.3297 C.3     1  UNL1        0.1136
     29 N           5.9114    0.6119   29.2053 N.pl3   1  UNL1       -0.2899
     30 C           5.9611    0.0183   28.2883 C.3     1  UNL1        0.1136
     31 N           4.3156   -1.2496   33.7866 N.pl3   1  UNL1       -0.2899
     32 C           3.9987   -2.7155   33.7568 C.3     1  UNL1        0.1136
     33 C           4.8766   -0.6288   35.0315 C.3     1  UNL1        0.1136
     34 C           6.3997   -1.0780   31.6356 C.3     1  UNL1        0.0736
     35 C           6.4812   -2.5053   31.1814 C.2     1  UNL1        0.0549
     36 O           7.0522   -3.5509   32.0927 O.co2   1  UNL1       -0.5488
     37 O           6.1604   -2.9083   30.2168 O.co2   1  UNL1       -0.5488
@<TRIPOS>UNITY_ATOM_ATTR
36 1
charge -1
@<TRIPOS>BOND
     1    28    29    1
     2    29    30    1
     3    29    22    1
     4    22    23   ar
     5    23    24   ar
     6    24    21    1
     7    21     1    1
     8     1     2   ar
     9     2     3   ar
    10     3     4   ar
    11     4     7    1
    12     7     8   am
    13     8     9    2
    14     8    11    1
    15    11    12   ar
    16    12    13   ar
    17    13    14   ar
    18    14    17    1
    19    17    18    1
    20    17    19    1
    21    17    20    1
    22    14    15   ar
    23    15    16   ar
    24     4     5   ar
    25     5     6   ar
    26    24    25   ar
    27    25    26   ar
    28    26    31    1
    29    31    32    1
    30    31    33    1
    31    26    27   ar
    32    27    34    1
    33    34    35    1
    34    35    36   ar
    35    35    37   ar
    36    27    22   ar
    37     6     1   ar
    38    16    11   ar
    39     7    10    1
@<TRIPOS>MOLECULE
*****
 37 39 0 0 0
SMALL
GASTEIGER

@<TRIPOS>ATOM
      1 C           5.6157   -0.9622   34.3776 C.ar    1  UNL1       -0.0145
      2 C           4.5282   -1.7855   33.7532 C.ar    1  UNL1       -0.0026
      3 C           4.7615   -2.4593   32.4336 C.ar    1  UNL1        0.0144
      4 C           6.0823   -2.3100   31.7383 C.ar    1  UNL1        0.0505
      5 C           7.1697   -1.4868   32.3626 C.ar    1  UNL1        0.0144
      6 C           6.9364   -0.8129   33.6823 C.ar    1  UNL1       -0.0026
      7 N           6.3155   -2.9838   30.4186 N.am    1  UNL1       -0.2804
      8 C           6.9217   -4.3552   30.3735 C.2     1  UNL1        0.2495
      9 O           7.2946   -5.0526   31.6481 O.2     1  UNL1       -0.2698
     10 H           6.0708   -2.5261   29.5821 H       1  UNL1        0.1552
     11 C           7.1550   -5.0291   29.0539 C.ar    1  UNL1        0.0537
     12 C           6.7655   -4.3391   27.7802 C.ar    1  UNL1        0.0045
     13 C           6.9987   -5.0130   26.4606 C.ar    1  UNL1        0.0040
     14 C           7.6215   -6.3768   26.4146 C.ar    1  UNL1        0.0714
     15 C           8.0110   -7.0668   27.6883 C.ar    1  UNL1        0.0040
     16 C           7.7777   -6.3930   29.0079 C.ar    1  UNL1        0.0045
     17 C           7.8547   -7.0507   25.0949 C.3     1  UNL1        0.4186
     18 F           8.0880   -7.7245   23.7753 F       1  UNL1       -0.1659
     19 F           8.4967   -8.2087   25.7997 F       1  UNL1       -0.1659
     20 F           7.2127   -5.8926   24.3901 F       1  UNL1       -0.1659
     21 C           5.3825   -0.2884   35.6972 C.3     1  UNL1        0.0920
     22 C           4.1180    3.2097   37.0811 C.ar    1  UNL1        0.1321
     23 N           4.7276    1.8399   37.0358 N.ar    1  UNL1       -0.2159
     24 C           4.7729    1.0815   35.7425 C.ar    1  UNL1        0.1463
     25 N           4.2087    1.6929   34.4944 N.ar    1  UNL1       -0.2159
     26 C           3.5991    3.0627   34.5397 C.ar    1  UNL1        0.1321
     27 C           3.5538    3.8211   35.8330 C.ar    1  UNL1        0.0466
     28 C           4.9433    5.1742   38.5676 C.3     1  UNL1        0.1136
     29 N           4.0727    3.9680   38.3745 N.pl3   1  UNL1       -0.2899
     30 C           3.4523    3.7448   39.2469 C.3     1  UNL1        0.1136
     31 N           3.0349    3.6742   33.2915 N.pl3   1  UNL1       -0.2899
     32 C           1.6076    3.4163   32.9091 C.3     1  UNL1        0.1136
     33 C           3.8979    4.5436   32.4259 C.3     1  UNL1        0.1136
     34 C           2.9442    5.1909   35.8783 C.3     1  UNL1        0.0736
     35 C           1.4604    5.3468   36.0328 C.2     1  UNL1        0.0549
     36 O           0.7512    4.6814   37.1748 O.co2   1  UNL1       -0.5488
     37 O           0.7873    5.9149   35.3847 O.co2   1  UNL1       -0.5488
@<TRIPOS>UNITY_ATOM_ATTR
36 1
charge -1
@<TRIPOS>BOND
     1    28    29    1
     2    29    30    1
     3    29    22    1
     4    22    23   ar
     5    23    24   ar
     6    24    21    1
     7    21     1    1
     8     1     2   ar
     9     2     3   ar
    10     3     4   ar
    11     4     7    1
    12     7     8   am
    13     8     9    2
    14     8    11    1
    15    11    12   ar
    16    12    13   ar
    17    13    14   ar
    18    14    17    1
    19    17    18    1
    20    17    19    1
    21    17    20    1
    22    14    15   ar
    23    15    16   ar
    24     4     5   ar
    25     5     6   ar
    26    24    25   ar
    27    25    26   ar
    28    26    31    1
    29    31    32    1
    30    31    33    1
    31    26    27   ar
    32    27    34    1
    33    34    35    1
    34    35    36   ar
    35    35    37   ar
    36    27    22   ar
    37     6     1   ar
    38    16    11   ar
    39     7    10    1
@<TRIPOS>MOLECULE
*****
 37 39 0 0 0
SMALL
GASTEIGER

@<TRIPOS>ATOM
      1 C           0.2127    1.4963   26.8447 C.ar    1  UNL1       -0.0145
      2 C           1.2122    2.5245   27.2851 C.ar    1  UNL1       -0.0026
      3 C           1.6087    2.6148   28.7289 C.ar    1  UNL1        0.0144
      4 C           1.0058    1.6769   29.7324 C.ar    1  UNL1        0.0505
      5 C           0.0064    0.6487   29.2920 C.ar    1  UNL1        0.0144
      6 C          -0.3902    0.5584   27.8482 C.ar    1  UNL1       -0.0026
      7 N           1.4023    1.7672   31.1762 N.am    1  UNL1       -0.2804
      8 C           2.6222    1.0444   31.6655 C.2     1  UNL1        0.2495
      9 O           3.4455    0.2312   30.7111 O.2     1  UNL1       -0.2698
     10 H           0.8620    2.3009   31.8026 H       1  UNL1        0.1552
     11 C           3.0188    1.1347   33.1093 C.ar    1  UNL1        0.0537
     12 C           4.0329    0.1820   33.6696 C.ar    1  UNL1        0.0045
     13 C           4.4295    0.2723   35.1134 C.ar    1  UNL1        0.0040
     14 C           3.8119    1.3153   35.9970 C.ar    1  UNL1        0.0714
     15 C           2.7977    2.2680   35.4367 C.ar    1  UNL1        0.0040
     16 C           2.4011    2.1777   33.9929 C.ar    1  UNL1        0.0045
     17 C           4.2084    1.4056   37.4408 C.3     1  UNL1        0.4186
     18 F           4.6050    1.4959   38.8846 F       1  UNL1       -0.1659
     19 F           5.0554    0.1775   37.2850 F       1  UNL1       -0.1659
     20 F           3.3614    2.6338   37.5966 F       1  UNL1       -0.1659
     21 C          -0.1838    1.4060   25.4009 C.3     1  UNL1        0.0920
     22 C           1.5591    0.8701   21.8760 C.ar    1  UNL1        0.1321
     23 N           0.5413    1.2477   22.9111 N.ar    1  UNL1       -0.2159
     24 C           0.8341    1.0283   24.3658 C.ar    1  UNL1        0.1463
     25 N           2.1446    0.4313   24.7854 N.ar    1  UNL1       -0.2159
     26 C           3.1623    0.0537   23.7503 C.ar    1  UNL1        0.1321
     27 C           2.8696    0.2731   22.2956 C.ar    1  UNL1        0.0466
     28 C           1.7519    2.3333   19.7378 C.3     1  UNL1        0.1136
     29 N           1.2664    1.0895   20.4213 N.pl3   1  UNL1       -0.2899
     30 C           0.7132    0.4233   19.7535 C.3     1  UNL1        0.1136
     31 N           4.4729   -0.5433   24.1699 N.pl3   1  UNL1       -0.2899
     32 C           4.5860   -2.0222   24.3937 C.3     1  UNL1        0.1136
     33 C           5.6704    0.3385   24.3657 C.3     1  UNL1        0.1136
     34 C           3.8875   -0.1046   21.2605 C.3     1  UNL1        0.0736
     35 C           3.7987   -1.4339   20.5714 C.2     1  UNL1        0.0549
     36 O           3.6609   -1.4974   19.0791 O.co2   1  UNL1       -0.5488
     37 O           3.8226   -2.4213   21.0406 O.co2   1  UNL1       -0.5488
@<TRIPOS>UNITY_ATOM_ATTR
36 1
charge -1
@<TRIPOS>BOND
     1    28    29    1
     2    29    30    1
     3    29    22    1
     4    22    23   ar
     5    23    24   ar
     6    24    21    1
     7    21     1    1
     8     1     2   ar
     9     2     3   ar
    10     3     4   ar
    11     4     7    1
    12     7     8   am
    13     8     9    2
    14     8    11    1
    15    11    12   ar
    16    12    13   ar
    17    13    14   ar
    18    14    17    1
    19    17    18    1
    20    17    19    1
    21    17    20    1
    22    14    15   ar
    23    15    16   ar
    24     4     5   ar
    25     5     6   ar
    26    24    25   ar
    27    25    26   ar
    28    26    31    1
    29    31    32    1
    30    31    33    1
    31    26    27   ar
    32    27    34    1
    33    34    35    1
    34    35    36   ar
    35    35    37   ar
    36    27    22   ar
    37     6     1   ar
    38    16    11   ar
    39     7    10    1
@<TRIPOS>MOLECULE
*****
 37 39 0 0 0
SMALL
GASTEIGER

@<TRIPOS>ATOM
      1 C          -0.8424    2.5368   27.3580 C.ar    1  UNL1       -0.0145
      2 C           0.1892    3.4735   27.9136 C.ar    1  UNL1       -0.0026
      3 C           1.1435    2.9978   28.9685 C.ar    1  UNL1        0.0144
      4 C           1.0663    1.5854   29.4679 C.ar    1  UNL1        0.0505
      5 C           0.0348    0.6488   28.9123 C.ar    1  UNL1        0.0144
      6 C          -0.9196    1.1245   27.8574 C.ar    1  UNL1       -0.0026
      7 N           2.0207    1.1097   30.5228 N.am    1  UNL1       -0.2804
      8 C           1.8995    1.6189   31.9285 C.2     1  UNL1        0.2495
      9 O           0.8239    2.6039   32.2793 O.2     1  UNL1       -0.2698
     10 H           2.7266    0.4632   30.2926 H       1  UNL1        0.1552
     11 C           2.8538    1.1432   32.9835 C.ar    1  UNL1        0.0537
     12 C           3.6650   -0.0979   32.7564 C.ar    1  UNL1        0.0045
     13 C           4.6193   -0.5737   33.8113 C.ar    1  UNL1        0.0040
     14 C           4.7626    0.1917   35.0933 C.ar    1  UNL1        0.0714
     15 C           3.9514    1.4329   35.3205 C.ar    1  UNL1        0.0040
     16 C           2.9970    1.9087   34.2656 C.ar    1  UNL1        0.0045
     17 C           5.7169   -0.2840   36.1483 C.3     1  UNL1        0.4186
     18 F           6.6713   -0.7597   37.2032 F       1  UNL1       -0.1659
     19 F           6.7429   -0.5686   35.0917 F       1  UNL1       -0.1659
     20 F           4.6909    0.0006   37.2048 F       1  UNL1       -0.1659
     21 C          -1.7968    3.0126   26.3031 C.3     1  UNL1        0.0920
     22 C          -1.8632    3.6541   22.3872 C.ar    1  UNL1        0.1321
     23 N          -2.3025    3.5847   23.8197 N.ar    1  UNL1       -0.2159
     24 C          -1.3574    3.0820   24.8705 C.ar    1  UNL1        0.1463
     25 N           0.0270    2.6488   24.4888 N.ar    1  UNL1       -0.2159
     26 C           0.4663    2.7183   23.0563 C.ar    1  UNL1        0.1321
     27 C          -0.4788    3.2209   22.0055 C.ar    1  UNL1        0.0466
     28 C          -3.6746    3.1914   20.5832 C.3     1  UNL1        0.1136
     29 N          -2.8083    4.1568   21.3364 N.pl3   1  UNL1       -0.2899
     30 C          -2.9582    5.1953   21.0286 C.3     1  UNL1        0.1136
     31 N           1.8507    2.2851   22.6745 N.pl3   1  UNL1       -0.2899
     32 C           2.9027    3.3122   22.3771 C.3     1  UNL1        0.1136
     33 C           2.1831    0.8248   22.5900 C.3     1  UNL1        0.1136
     34 C          -0.0395    3.2904   20.5729 C.3     1  UNL1        0.0736
     35 C           0.0830    2.0330   19.7642 C.2     1  UNL1        0.0549
     36 O          -0.4191    0.7328   20.3186 O.co2   1  UNL1       -0.5488
     37 O           0.5155    1.9327   18.7649 O.co2   1  UNL1       -0.5488
@<TRIPOS>UNITY_ATOM_ATTR
36 1
charge -1
@<TRIPOS>BOND
     1    28    29    1
     2    29    30    1
     3    29    22    1
     4    22    23   ar
     5    23    24   ar
     6    24    21    1
     7    21     1    1
     8     1     2   ar
     9     2     3   ar
    10     3     4   ar
    11     4     7    1
    12     7     8   am
    13     8     9    2
    14     8    11    1
    15    11    12   ar
    16    12    13   ar
    17    13    14   ar
    18    14    17    1
    19    17    18    1
    20    17    19    1
    21    17    20    1
    22    14    15   ar
    23    15    16   ar
    24     4     5   ar
    25     5     6   ar
    26    24    25   ar
    27    25    26   ar
    28    26    31    1
    29    31    32    1
    30    31    33    1
    31    26    27   ar
    32    27    34    1
    33    34    35    1
    34    35    36   ar
    35    35    37   ar
    36    27    22   ar
    37     6     1   ar
    38    16    11   ar
    39     7    10    1
