@<TRIPOS>MOLECULE
*****
 34 37 0 0 0
SMALL
GASTEIGER

@<TRIPOS>ATOM
      1 C         -10.3431  -19.1081   22.2407 C.ar    1  UNL1        0.0951
      2 C         -11.4029  -18.6677   21.2749 C.ar    1  UNL1        0.1454
      3 F         -12.7193  -18.1613   21.7857 F       1  UNL1       -0.2040
      4 C         -11.1465  -18.7335   19.7985 C.ar    1  UNL1        0.0312
      5 C          -9.8302  -19.2399   19.2877 C.ar    1  UNL1        0.0204
      6 C          -8.7703  -19.6804   20.2535 C.ar    1  UNL1        0.0924
      7 C          -9.0267  -19.6145   21.7300 C.ar    1  UNL1        0.1598
      8 F          -7.9668  -20.0550   22.6956 F       1  UNL1       -0.2026
      9 C         -10.5995  -19.0423   23.7171 C.2     1  UNL1        0.2036
     10 O         -11.6455  -19.9210   24.3366 O.2     1  UNL1       -0.2863
     11 C          -7.8921  -15.1721   22.5306 C.2     1  UNL1        0.1673
     12 C          -7.2709  -14.5083   23.7237 C.2     1  UNL1        0.2683
     13 N          -7.5174  -15.0545   25.0988 N.2     1  UNL1       -0.0278
     14 C          -8.3850  -16.2644   25.2808 C.2     1  UNL1        0.3723
     15 N          -8.8048  -17.0236   26.5045 N.2     1  UNL1       -0.0307
     16 C          -9.6855  -18.1566   26.0677 C.2     1  UNL1        0.2390
     17 C          -9.8100  -18.0977   24.5740 C.2     1  UNL1        0.0897
     18 C          -9.0062  -16.9282   24.0877 C.2     1  UNL1        0.0806
     19 C          -8.7597  -16.3820   22.7126 C.3     1  UNL1        0.1023
     20 C          -8.7775  -14.0328   20.3700 C.3     1  UNL1        0.2522
     21 O          -7.6456  -14.6259   21.1555 O.2     1  UNL1       -0.4715
     22 N          -7.4540  -20.1868   19.7428 N.pl3   1  UNL1       -0.2127
     23 H          -7.4279  -20.8039   18.9762 H       1  UNL1        0.1738
     24 S          -6.1773  -19.7528   20.4000 S.O2    1  UNL1        0.0759
     25 O          -6.5211  -18.3196   20.1216 O.2     1  UNL1       -0.1499
     26 O          -5.8335  -21.1861   20.6784 O.2     1  UNL1       -0.1499
     27 C          -4.9007  -19.3189   21.0573 C.ar    1  UNL1        0.1547
     28 C          -4.9288  -18.7375   22.4397 C.ar    1  UNL1        0.0521
     29 C          -3.6523  -18.3036   23.0970 C.ar    1  UNL1        0.1416
     30 F          -3.6804  -17.7222   24.4794 F       1  UNL1       -0.2041
     31 C          -2.3475  -18.4512   22.3718 C.ar    1  UNL1        0.0320
     32 C          -2.3193  -19.0326   20.9894 C.ar    1  UNL1        0.0333
     33 C          -3.5959  -19.4665   20.3321 C.ar    1  UNL1        0.1590
     34 F          -3.5678  -20.0480   18.9497 F       1  UNL1       -0.2027
@<TRIPOS>BOND
     1    20    21    1
     2    21    11    1
     3    11    12    2
     4    12    13    1
     5    13    14    2
     6    14    15    1
     7    15    16    2
     8    16    17    1
     9    17     9    1
    10     9    10    2
    11     9     1    1
    12     1     2   ar
    13     2     3    1
    14     2     4   ar
    15     4     5   ar
    16     5     6   ar
    17     6    22    1
    18    22    24    1
    19    24    25    2
    20    24    26    2
    21    24    27    1
    22    27    28   ar
    23    28    29   ar
    24    29    30    1
    25    29    31   ar
    26    31    32   ar
    27    32    33   ar
    28    33    34    1
    29     6     7   ar
    30     7     8    1
    31    17    18    2
    32    18    19    1
    33    19    11    1
    34    18    14    1
    35     7     1   ar
    36    33    27   ar
    37    22    23    1
@<TRIPOS>MOLECULE
*****
 34 37 0 0 0
SMALL
GASTEIGER

@<TRIPOS>ATOM
      1 C          -8.9790  -18.7825   20.7362 C.ar    1  UNL1        0.0951
      2 C          -9.6377  -19.3633   19.5202 C.ar    1  UNL1        0.1454
      3 F         -11.0269  -18.9395   19.1453 F       1  UNL1       -0.2040
      4 C          -8.9073  -20.3677   18.6790 C.ar    1  UNL1        0.0312
      5 C          -7.5181  -20.7915   19.0539 C.ar    1  UNL1        0.0204
      6 C          -6.8593  -20.2107   20.2700 C.ar    1  UNL1        0.0924
      7 C          -7.5897  -19.2062   21.1111 C.ar    1  UNL1        0.1598
      8 F          -6.9309  -18.6255   22.3272 F       1  UNL1       -0.2026
      9 C          -9.7094  -17.7781   21.5774 C.2     1  UNL1        0.2036
     10 O         -10.2288  -16.5155   20.9561 O.2     1  UNL1       -0.2863
     11 C          -7.6160  -15.7860   25.4973 C.2     1  UNL1        0.1673
     12 C          -8.1363  -16.3511   26.7856 C.2     1  UNL1        0.2683
     13 N          -9.1922  -17.4163   26.7651 N.2     1  UNL1       -0.0278
     14 C          -9.7277  -17.9165   25.4563 C.2     1  UNL1        0.3723
     15 N         -10.7623  -18.9506   25.1245 N.2     1  UNL1       -0.0307
     16 C         -10.8814  -19.0247   23.6310 C.2     1  UNL1        0.2390
     17 C          -9.9204  -18.0363   23.0398 C.2     1  UNL1        0.0897
     18 C          -9.2073  -17.3514   24.1680 C.2     1  UNL1        0.0806
     19 C          -8.1515  -16.2861   24.1884 C.3     1  UNL1        0.1023
     20 C          -5.1318  -15.0857   25.7947 C.3     1  UNL1        0.2522
     21 O          -6.5601  -14.7208   25.5177 O.2     1  UNL1       -0.4715
     22 N          -5.4701  -20.6344   20.6448 N.pl3   1  UNL1       -0.2127
     23 H          -5.2761  -21.5829   20.8235 H       1  UNL1        0.1738
     24 S          -4.3764  -19.6130   20.7474 S.O2    1  UNL1        0.0759
     25 O          -4.7207  -19.1067   19.3781 O.2     1  UNL1       -0.1499
     26 O          -4.0320  -20.1193   22.1167 O.2     1  UNL1       -0.1499
     27 C          -3.2826  -18.5916   20.8500 C.ar    1  UNL1        0.1547
     28 C          -2.1313  -18.6266   19.8893 C.ar    1  UNL1        0.0521
     29 C          -1.0375  -17.6052   19.9919 C.ar    1  UNL1        0.1416
     30 F           0.1138  -17.6402   19.0311 F       1  UNL1       -0.2041
     31 C          -1.0952  -16.5488   21.0552 C.ar    1  UNL1        0.0320
     32 C          -2.2465  -16.5138   22.0160 C.ar    1  UNL1        0.0333
     33 C          -3.3403  -17.5352   21.9134 C.ar    1  UNL1        0.1590
     34 F          -4.4917  -17.5002   22.8741 F       1  UNL1       -0.2027
@<TRIPOS>BOND
     1    20    21    1
     2    21    11    1
     3    11    12    2
     4    12    13    1
     5    13    14    2
     6    14    15    1
     7    15    16    2
     8    16    17    1
     9    17     9    1
    10     9    10    2
    11     9     1    1
    12     1     2   ar
    13     2     3    1
    14     2     4   ar
    15     4     5   ar
    16     5     6   ar
    17     6    22    1
    18    22    24    1
    19    24    25    2
    20    24    26    2
    21    24    27    1
    22    27    28   ar
    23    28    29   ar
    24    29    30    1
    25    29    31   ar
    26    31    32   ar
    27    32    33   ar
    28    33    34    1
    29     6     7   ar
    30     7     8    1
    31    17    18    2
    32    18    19    1
    33    19    11    1
    34    18    14    1
    35     7     1   ar
    36    33    27   ar
    37    22    23    1
@<TRIPOS>MOLECULE
*****
 34 37 0 0 0
SMALL
GASTEIGER

@<TRIPOS>ATOM
      1 C          -7.8611  -15.9616   25.1888 C.ar    1  UNL1        0.0951
      2 C          -7.6868  -15.5587   26.6231 C.ar    1  UNL1        0.1454
      3 F          -8.8880  -15.3848   27.5045 F       1  UNL1       -0.2040
      4 C          -6.3114  -15.3297   27.1760 C.ar    1  UNL1        0.0312
      5 C          -5.1102  -15.5036   26.2946 C.ar    1  UNL1        0.0204
      6 C          -5.2845  -15.9065   24.8602 C.ar    1  UNL1        0.0924
      7 C          -6.6600  -16.1356   24.3073 C.ar    1  UNL1        0.1598
      8 F          -6.8342  -16.5385   22.8730 F       1  UNL1       -0.2026
      9 C          -9.2366  -16.1906   24.6359 C.2     1  UNL1        0.2036
     10 O         -10.1618  -15.0295   24.4218 O.2     1  UNL1       -0.2863
     11 C         -11.1761  -18.0036   20.5533 C.2     1  UNL1        0.1673
     12 C         -11.4805  -19.4688   20.6542 C.2     1  UNL1        0.2683
     13 N         -11.1825  -20.2112   21.9231 N.2     1  UNL1       -0.0278
     14 C         -10.5799  -19.4883   23.0911 C.2     1  UNL1        0.3723
     15 N         -10.1795  -19.9517   24.4603 N.2     1  UNL1       -0.0307
     16 C          -9.6275  -18.7728   25.2057 C.2     1  UNL1        0.2390
     17 C          -9.6868  -17.5808   24.2971 C.2     1  UNL1        0.0897
     18 C         -10.2755  -18.0230   22.9902 C.2     1  UNL1        0.0806
     19 C         -10.5735  -17.2806   21.7213 C.3     1  UNL1        0.1023
     20 C         -11.6789  -15.7756   19.3150 C.3     1  UNL1        0.2522
     21 O         -11.4741  -17.2612   19.2844 O.2     1  UNL1       -0.4715
     22 N          -4.0833  -16.0804   23.9788 N.pl3   1  UNL1       -0.2127
     23 H          -3.3443  -15.4313   24.0202 H       1  UNL1        0.1738
     24 S          -4.0081  -17.2434   23.0344 S.O2    1  UNL1        0.0759
     25 O          -3.7202  -16.3043   21.9009 O.2     1  UNL1       -0.1499
     26 O          -4.2960  -18.1826   24.1680 O.2     1  UNL1       -0.1499
     27 C          -3.9329  -18.4064   22.0900 C.ar    1  UNL1        0.1547
     28 C          -5.1924  -19.0542   21.5962 C.ar    1  UNL1        0.0521
     29 C          -5.1173  -20.2171   20.6519 C.ar    1  UNL1        0.1416
     30 F          -6.3769  -20.8649   20.1581 F       1  UNL1       -0.2041
     31 C          -3.7825  -20.7324   20.2013 C.ar    1  UNL1        0.0320
     32 C          -2.5230  -20.0847   20.6951 C.ar    1  UNL1        0.0333
     33 C          -2.5981  -18.9217   21.6395 C.ar    1  UNL1        0.1590
     34 F          -1.3386  -18.2739   22.1333 F       1  UNL1       -0.2027
@<TRIPOS>BOND
     1    20    21    1
     2    21    11    1
     3    11    12    2
     4    12    13    1
     5    13    14    2
     6    14    15    1
     7    15    16    2
     8    16    17    1
     9    17     9    1
    10     9    10    2
    11     9     1    1
    12     1     2   ar
    13     2     3    1
    14     2     4   ar
    15     4     5   ar
    16     5     6   ar
    17     6    22    1
    18    22    24    1
    19    24    25    2
    20    24    26    2
    21    24    27    1
    22    27    28   ar
    23    28    29   ar
    24    29    30    1
    25    29    31   ar
    26    31    32   ar
    27    32    33   ar
    28    33    34    1
    29     6     7   ar
    30     7     8    1
    31    17    18    2
    32    18    19    1
    33    19    11    1
    34    18    14    1
    35     7     1   ar
    36    33    27   ar
    37    22    23    1
@<TRIPOS>MOLECULE
*****
 34 37 0 0 0
SMALL
GASTEIGER

@<TRIPOS>ATOM
      1 C          -9.5830  -18.3446   23.0226 C.ar    1  UNL1        0.0951
      2 C         -10.7215  -17.6316   22.3552 C.ar    1  UNL1        0.1454
      3 F         -11.7075  -16.8574   23.1788 F       1  UNL1       -0.2040
      4 C         -10.8740  -17.6929   20.8642 C.ar    1  UNL1        0.0312
      5 C          -9.8879  -18.4671   20.0406 C.ar    1  UNL1        0.0204
      6 C          -8.7493  -19.1801   20.7081 C.ar    1  UNL1        0.0924
      7 C          -8.5968  -19.1188   22.1991 C.ar    1  UNL1        0.1598
      8 F          -7.4583  -19.8317   22.8665 F       1  UNL1       -0.2026
      9 C          -9.4305  -18.2833   24.5136 C.2     1  UNL1        0.2036
     10 O          -9.9990  -19.3748   25.3711 O.2     1  UNL1       -0.2863
     11 C          -5.1046  -16.2888   23.5010 C.2     1  UNL1        0.1673
     12 C          -4.7706  -15.1355   24.3999 C.2     1  UNL1        0.2683
     13 N          -5.7338  -14.7154   25.4704 N.2     1  UNL1       -0.0278
     14 C          -7.0310  -15.4487   25.6419 C.2     1  UNL1        0.3723
     15 N          -8.1689  -15.2643   26.6016 N.2     1  UNL1       -0.0307
     16 C          -9.2063  -16.3037   26.2957 C.2     1  UNL1        0.2390
     17 C          -8.7095  -17.1305   25.1470 C.2     1  UNL1        0.0897
     18 C          -7.3650  -16.6020   24.7429 C.2     1  UNL1        0.0806
     19 C          -6.4019  -17.0221   23.6725 C.3     1  UNL1        0.1023
     20 C          -2.7604  -16.1248   22.3930 C.3     1  UNL1        0.2522
     21 O          -4.1415  -16.7089   22.4305 O.2     1  UNL1       -0.4715
     22 N          -7.7633  -19.9543   19.8845 N.pl3   1  UNL1       -0.2127
     23 H          -8.0819  -20.6109   19.2238 H       1  UNL1        0.1738
     24 S          -6.2918  -19.7280   20.0676 S.O2    1  UNL1        0.0759
     25 O          -6.0597  -21.2095   20.0336 O.2     1  UNL1       -0.1499
     26 O          -6.5238  -18.2464   20.1017 O.2     1  UNL1       -0.1499
     27 C          -4.8202  -19.5016   20.2507 C.ar    1  UNL1        0.1547
     28 C          -4.0141  -18.8809   19.1485 C.ar    1  UNL1        0.0521
     29 C          -2.5427  -18.6546   19.3315 C.ar    1  UNL1        0.1416
     30 F          -1.7366  -18.0339   18.2293 F       1  UNL1       -0.2041
     31 C          -1.8773  -19.0489   20.6167 C.ar    1  UNL1        0.0320
     32 C          -2.6834  -19.6696   21.7189 C.ar    1  UNL1        0.0333
     33 C          -4.1549  -19.8960   21.5359 C.ar    1  UNL1        0.1590
     34 F          -4.9610  -20.5167   22.6381 F       1  UNL1       -0.2027
@<TRIPOS>BOND
     1    20    21    1
     2    21    11    1
     3    11    12    2
     4    12    13    1
     5    13    14    2
     6    14    15    1
     7    15    16    2
     8    16    17    1
     9    17     9    1
    10     9    10    2
    11     9     1    1
    12     1     2   ar
    13     2     3    1
    14     2     4   ar
    15     4     5   ar
    16     5     6   ar
    17     6    22    1
    18    22    24    1
    19    24    25    2
    20    24    26    2
    21    24    27    1
    22    27    28   ar
    23    28    29   ar
    24    29    30    1
    25    29    31   ar
    26    31    32   ar
    27    32    33   ar
    28    33    34    1
    29     6     7   ar
    30     7     8    1
    31    17    18    2
    32    18    19    1
    33    19    11    1
    34    18    14    1
    35     7     1   ar
    36    33    27   ar
    37    22    23    1
@<TRIPOS>MOLECULE
*****
 34 37 0 0 0
SMALL
GASTEIGER

@<TRIPOS>ATOM
      1 C          -7.2246  -17.4311   23.2157 C.ar    1  UNL1        0.0951
      2 C          -7.7671  -16.1474   23.7704 C.ar    1  UNL1        0.1454
      3 F          -9.2471  -15.9045   23.7886 F       1  UNL1       -0.2040
      4 C          -6.8295  -15.1066   24.3068 C.ar    1  UNL1        0.0312
      5 C          -5.3494  -15.3495   24.2886 C.ar    1  UNL1        0.0204
      6 C          -4.8069  -16.6333   23.7339 C.ar    1  UNL1        0.0924
      7 C          -5.7445  -17.6741   23.1974 C.ar    1  UNL1        0.1598
      8 F          -5.2019  -18.9578   22.6427 F       1  UNL1       -0.2026
      9 C          -8.1621  -18.4719   22.6792 C.2     1  UNL1        0.2036
     10 O          -7.7441  -19.3347   21.5256 O.2     1  UNL1       -0.2863
     11 C         -12.5500  -16.9422   21.2222 C.2     1  UNL1        0.1673
     12 C         -13.6492  -17.3514   22.1572 C.2     1  UNL1        0.2683
     13 N         -13.3297  -18.1479   23.3874 N.2     1  UNL1       -0.0278
     14 C         -11.9110  -18.5353   23.6826 C.2     1  UNL1        0.3723
     15 N         -11.2963  -19.3118   24.8091 N.2     1  UNL1       -0.0307
     16 C          -9.8171  -19.3826   24.5704 C.2     1  UNL1        0.2390
     17 C          -9.5176  -18.6498   23.2963 C.2     1  UNL1        0.0897
     18 C         -10.8118  -18.1262   22.7476 C.2     1  UNL1        0.0806
     19 C         -11.1313  -17.3296   21.5174 C.3     1  UNL1        0.1023
     20 C         -11.7601  -15.5823   19.1541 C.3     1  UNL1        0.2522
     21 O         -12.8694  -16.1457   19.9919 O.2     1  UNL1       -0.4715
     22 N          -3.3268  -16.8762   23.7157 N.pl3   1  UNL1       -0.2127
     23 H          -2.8175  -16.8757   24.5582 H       1  UNL1        0.1738
     24 S          -2.6228  -17.1199   22.4138 S.O2    1  UNL1        0.0759
     25 O          -2.9522  -15.7241   21.9743 O.2     1  UNL1       -0.1499
     26 O          -2.2933  -18.5157   22.8533 O.2     1  UNL1       -0.1499
     27 C          -1.9186  -17.3636   21.1119 C.ar    1  UNL1        0.1547
     28 C          -0.4948  -16.9257   20.9359 C.ar    1  UNL1        0.0521
     29 C           0.2093  -17.1694   19.6341 C.ar    1  UNL1        0.1416
     30 F           1.6332  -16.7315   19.4581 F       1  UNL1       -0.2041
     31 C          -0.5103  -17.8510   18.5082 C.ar    1  UNL1        0.0320
     32 C          -1.9341  -18.2889   18.6842 C.ar    1  UNL1        0.0333
     33 C          -2.6383  -18.0452   19.9860 C.ar    1  UNL1        0.1590
     34 F          -4.0621  -18.4831   20.1621 F       1  UNL1       -0.2027
@<TRIPOS>BOND
     1    20    21    1
     2    21    11    1
     3    11    12    2
     4    12    13    1
     5    13    14    2
     6    14    15    1
     7    15    16    2
     8    16    17    1
     9    17     9    1
    10     9    10    2
    11     9     1    1
    12     1     2   ar
    13     2     3    1
    14     2     4   ar
    15     4     5   ar
    16     5     6   ar
    17     6    22    1
    18    22    24    1
    19    24    25    2
    20    24    26    2
    21    24    27    1
    22    27    28   ar
    23    28    29   ar
    24    29    30    1
    25    29    31   ar
    26    31    32   ar
    27    32    33   ar
    28    33    34    1
    29     6     7   ar
    30     7     8    1
    31    17    18    2
    32    18    19    1
    33    19    11    1
    34    18    14    1
    35     7     1   ar
    36    33    27   ar
    37    22    23    1
@<TRIPOS>MOLECULE
*****
 34 37 0 0 0
SMALL
GASTEIGER

@<TRIPOS>ATOM
      1 C           6.6921   -3.8768   21.3167 C.ar    1  UNL1        0.0951
      2 C           8.1894   -3.8391   21.2356 C.ar    1  UNL1        0.1454
      3 F           8.8692   -3.8789   19.8990 F       1  UNL1       -0.2040
      4 C           9.0069   -3.7616   22.4908 C.ar    1  UNL1        0.0312
      5 C           8.3270   -3.7218   23.8273 C.ar    1  UNL1        0.0204
      6 C           6.8296   -3.7595   23.9085 C.ar    1  UNL1        0.0924
      7 C           6.0122   -3.8370   22.6532 C.ar    1  UNL1        0.1598
      8 F           4.5149   -3.8747   22.7345 F       1  UNL1       -0.2026
      9 C           5.8746   -3.9543   20.0615 C.2     1  UNL1        0.2036
     10 O           5.1523   -5.2222   19.7139 O.2     1  UNL1       -0.2863
     11 C           2.2964   -0.7127   19.4252 C.2     1  UNL1        0.1673
     12 C           2.6307    0.3295   18.3995 C.2     1  UNL1        0.2683
     13 N           3.9553    0.2925   17.6967 N.2     1  UNL1       -0.0278
     14 C           4.9457   -0.7867   18.0196 C.2     1  UNL1        0.3723
     15 N           6.3202   -1.0776   17.4941 N.2     1  UNL1       -0.0307
     16 C           6.8355   -2.2996   18.1950 C.2     1  UNL1        0.2390
     17 C           5.7795   -2.7640   19.1537 C.2     1  UNL1        0.0897
     18 C           4.6115   -1.8289   19.0453 C.2     1  UNL1        0.0806
     19 C           3.2869   -1.7919   19.7481 C.3     1  UNL1        0.1023
     20 C           0.5894    0.5228   20.9450 C.3     1  UNL1        0.2522
     21 O           0.9718   -0.6756   20.1280 O.2     1  UNL1       -0.4715
     22 N           6.1498   -3.7197   25.2450 N.pl3   1  UNL1       -0.2127
     23 H           5.2910   -3.2493   25.3466 H       1  UNL1        0.1738
     24 S           6.7785   -4.3967   26.4267 S.O2    1  UNL1        0.0759
     25 O           7.0213   -3.0604   27.0632 O.2     1  UNL1       -0.1499
     26 O           6.5358   -5.7331   25.7902 O.2     1  UNL1       -0.1499
     27 C           7.4072   -5.0738   27.6084 C.ar    1  UNL1        0.1547
     28 C           6.6573   -5.1705   28.9039 C.ar    1  UNL1        0.0521
     29 C           7.2859   -5.8476   30.0856 C.ar    1  UNL1        0.1416
     30 F           6.5360   -5.9443   31.3811 F       1  UNL1       -0.2041
     31 C           8.6645   -6.4279   29.9718 C.ar    1  UNL1        0.0320
     32 C           9.4144   -6.3312   28.6763 C.ar    1  UNL1        0.0333
     33 C           8.7857   -5.6541   27.4946 C.ar    1  UNL1        0.1590
     34 F           9.5356   -5.5573   26.1991 F       1  UNL1       -0.2027
@<TRIPOS>BOND
     1    20    21    1
     2    21    11    1
     3    11    12    2
     4    12    13    1
     5    13    14    2
     6    14    15    1
     7    15    16    2
     8    16    17    1
     9    17     9    1
    10     9    10    2
    11     9     1    1
    12     1     2   ar
    13     2     3    1
    14     2     4   ar
    15     4     5   ar
    16     5     6   ar
    17     6    22    1
    18    22    24    1
    19    24    25    2
    20    24    26    2
    21    24    27    1
    22    27    28   ar
    23    28    29   ar
    24    29    30    1
    25    29    31   ar
    26    31    32   ar
    27    32    33   ar
    28    33    34    1
    29     6     7   ar
    30     7     8    1
    31    17    18    2
    32    18    19    1
    33    19    11    1
    34    18    14    1
    35     7     1   ar
    36    33    27   ar
    37    22    23    1
@<TRIPOS>MOLECULE
*****
 34 37 0 0 0
SMALL
GASTEIGER

@<TRIPOS>ATOM
      1 C           3.8953   -1.6530   19.1044 C.ar    1  UNL1        0.0951
      2 C           5.0091   -1.0101   18.3323 C.ar    1  UNL1        0.1454
      3 F           6.2672   -1.7772   18.0515 F       1  UNL1       -0.2040
      4 C           4.8649    0.3998   17.8411 C.ar    1  UNL1        0.0312
      5 C           3.6068    1.1669   18.1219 C.ar    1  UNL1        0.0204
      6 C           2.4930    0.5239   18.8941 C.ar    1  UNL1        0.0924
      7 C           2.6372   -0.8860   19.3853 C.ar    1  UNL1        0.1598
      8 F           1.5234   -1.5288   20.1574 F       1  UNL1       -0.2026
      9 C           4.0396   -3.0629   19.5957 C.2     1  UNL1        0.2036
     10 O           3.0895   -4.1229   19.1226 O.2     1  UNL1       -0.2863
     11 C           4.5606   -2.0410   24.3286 C.2     1  UNL1        0.1673
     12 C           5.8281   -2.5958   24.9079 C.2     1  UNL1        0.2683
     13 N           6.7733   -3.3714   24.0389 N.2     1  UNL1       -0.0278
     14 C           6.4511   -3.5921   22.5907 C.2     1  UNL1        0.3723
     15 N           7.1848   -4.3106   21.4974 N.2     1  UNL1       -0.0307
     16 C           6.3708   -4.1998   20.2423 C.2     1  UNL1        0.2390
     17 C           5.1339   -3.4129   20.5600 C.2     1  UNL1        0.0897
     18 C           5.1836   -3.0373   22.0114 C.2     1  UNL1        0.0806
     19 C           4.2384   -2.2617   22.8804 C.3     1  UNL1        0.1023
     20 C           3.8014   -1.2557   26.6859 C.3     1  UNL1        0.2522
     21 O           3.6154   -1.2654   25.1975 O.2     1  UNL1       -0.4715
     22 N           1.2349    1.2910   19.1749 N.pl3   1  UNL1       -0.2127
     23 H           0.6722    1.6034   18.4299 H       1  UNL1        0.1738
     24 S           0.8342    1.5820   20.5908 S.O2    1  UNL1        0.0759
     25 O          -0.3825    0.7210   20.4235 O.2     1  UNL1       -0.1499
     26 O           2.0509    2.4431   20.7582 O.2     1  UNL1       -0.1499
     27 C           0.4335    1.8731   22.0067 C.ar    1  UNL1        0.1547
     28 C          -0.5443    2.9726   22.2985 C.ar    1  UNL1        0.0521
     29 C          -0.9450    3.2637   23.7143 C.ar    1  UNL1        0.1416
     30 F          -1.9227    4.3632   24.0061 F       1  UNL1       -0.2041
     31 C          -0.3679    2.4553   24.8384 C.ar    1  UNL1        0.0320
     32 C           0.6098    1.3559   24.5467 C.ar    1  UNL1        0.0333
     33 C           1.0105    1.0647   23.1308 C.ar    1  UNL1        0.1590
     34 F           1.9883   -0.0347   22.8390 F       1  UNL1       -0.2027
@<TRIPOS>BOND
     1    20    21    1
     2    21    11    1
     3    11    12    2
     4    12    13    1
     5    13    14    2
     6    14    15    1
     7    15    16    2
     8    16    17    1
     9    17     9    1
    10     9    10    2
    11     9     1    1
    12     1     2   ar
    13     2     3    1
    14     2     4   ar
    15     4     5   ar
    16     5     6   ar
    17     6    22    1
    18    22    24    1
    19    24    25    2
    20    24    26    2
    21    24    27    1
    22    27    28   ar
    23    28    29   ar
    24    29    30    1
    25    29    31   ar
    26    31    32   ar
    27    32    33   ar
    28    33    34    1
    29     6     7   ar
    30     7     8    1
    31    17    18    2
    32    18    19    1
    33    19    11    1
    34    18    14    1
    35     7     1   ar
    36    33    27   ar
    37    22    23    1
@<TRIPOS>MOLECULE
*****
 34 37 0 0 0
SMALL
GASTEIGER

@<TRIPOS>ATOM
      1 C           4.9078   -2.6845   19.8309 C.ar    1  UNL1        0.0951
      2 C           6.2982   -2.5256   19.2910 C.ar    1  UNL1        0.1454
      3 F           7.4172   -3.3570   19.8448 F       1  UNL1       -0.2040
      4 C           6.5697   -1.5355   18.1974 C.ar    1  UNL1        0.0312
      5 C           5.4506   -0.7042   17.6436 C.ar    1  UNL1        0.0204
      6 C           4.0602   -0.8630   18.1835 C.ar    1  UNL1        0.0924
      7 C           3.7887   -1.8531   19.2771 C.ar    1  UNL1        0.1598
      8 F           2.3983   -2.0119   19.8170 F       1  UNL1       -0.2026
      9 C           4.6364   -3.6746   20.9245 C.2     1  UNL1        0.2036
     10 O           3.9809   -4.9851   20.6040 O.2     1  UNL1       -0.2863
     11 C           2.8736   -0.3640   24.0308 C.2     1  UNL1        0.1673
     12 C           3.5632   -0.3901   25.3626 C.2     1  UNL1        0.2683
     13 N           4.6697   -1.3708   25.6152 N.2     1  UNL1       -0.0278
     14 C           5.0866   -2.3255   24.5360 C.2     1  UNL1        0.3723
     15 N           6.1362   -3.3963   24.4936 N.2     1  UNL1       -0.0307
     16 C           6.0953   -4.0320   23.1356 C.2     1  UNL1        0.2390
     17 C           5.0204   -3.3541   22.3386 C.2     1  UNL1        0.0897
     18 C           4.3970   -2.2994   23.2042 C.2     1  UNL1        0.0806
     19 C           3.2906   -1.3186   22.9516 C.3     1  UNL1        0.1023
     20 C           0.8971    1.0741   24.9112 C.3     1  UNL1        0.2522
     21 O           1.7671    0.6168   23.7782 O.2     1  UNL1       -0.4715
     22 N           2.9412   -0.0317   17.6297 N.pl3   1  UNL1       -0.2127
     23 H           2.6774   -0.1271   16.6860 H       1  UNL1        0.1738
     24 S           2.2240    0.9452   18.5138 S.O2    1  UNL1        0.0759
     25 O           3.5414    1.4768   18.9951 O.2     1  UNL1       -0.1499
     26 O           0.9066    0.4136   18.0324 O.2     1  UNL1       -0.1499
     27 C           1.5068    1.9220   19.3978 C.ar    1  UNL1        0.1547
     28 C           1.6135    3.3941   19.1303 C.ar    1  UNL1        0.0521
     29 C           0.8963    4.3709   20.0142 C.ar    1  UNL1        0.1416
     30 F           1.0030    5.8430   19.7467 F       1  UNL1       -0.2041
     31 C           0.0724    3.8757   21.1658 C.ar    1  UNL1        0.0320
     32 C          -0.0343    2.4036   21.4333 C.ar    1  UNL1        0.0333
     33 C           0.6829    1.4268   20.5493 C.ar    1  UNL1        0.1590
     34 F           0.5762   -0.0453   20.8168 F       1  UNL1       -0.2027
@<TRIPOS>BOND
     1    20    21    1
     2    21    11    1
     3    11    12    2
     4    12    13    1
     5    13    14    2
     6    14    15    1
     7    15    16    2
     8    16    17    1
     9    17     9    1
    10     9    10    2
    11     9     1    1
    12     1     2   ar
    13     2     3    1
    14     2     4   ar
    15     4     5   ar
    16     5     6   ar
    17     6    22    1
    18    22    24    1
    19    24    25    2
    20    24    26    2
    21    24    27    1
    22    27    28   ar
    23    28    29   ar
    24    29    30    1
    25    29    31   ar
    26    31    32   ar
    27    32    33   ar
    28    33    34    1
    29     6     7   ar
    30     7     8    1
    31    17    18    2
    32    18    19    1
    33    19    11    1
    34    18    14    1
    35     7     1   ar
    36    33    27   ar
    37    22    23    1
@<TRIPOS>MOLECULE
*****
 34 37 0 0 0
SMALL
GASTEIGER

@<TRIPOS>ATOM
      1 C           4.2746   -2.4601   20.1013 C.ar    1  UNL1        0.0951
      2 C           4.4252   -2.2295   18.6268 C.ar    1  UNL1        0.1454
      3 F           5.2635   -3.1622   17.8037 F       1  UNL1       -0.2040
      4 C           3.7376   -1.0664   17.9755 C.ar    1  UNL1        0.0312
      5 C           2.8993   -0.1338   18.7985 C.ar    1  UNL1        0.0204
      6 C           2.7487   -0.3644   20.2731 C.ar    1  UNL1        0.0924
      7 C           3.4363   -1.5275   20.9245 C.ar    1  UNL1        0.1598
      8 F           3.2856   -1.7580   22.3990 F       1  UNL1       -0.2026
      9 C           4.9622   -3.6232   20.7527 C.2     1  UNL1        0.2036
     10 O           4.2022   -4.8876   21.0244 O.2     1  UNL1       -0.2863
     11 C           7.1935   -4.3514   25.0197 C.2     1  UNL1        0.1673
     12 C           8.6761   -4.1364   24.9455 C.2     1  UNL1        0.2683
     13 N           9.3124   -3.7398   23.6463 N.2     1  UNL1       -0.0278
     14 C           8.4660   -3.5582   22.4213 C.2     1  UNL1        0.3723
     15 N           8.8088   -3.1742   21.0124 N.2     1  UNL1       -0.0307
     16 C           7.5379   -3.1518   20.2158 C.2     1  UNL1        0.2390
     17 C           6.4098   -3.5220   21.1324 C.2     1  UNL1        0.0897
     18 C           6.9834   -3.7731   22.4956 C.2     1  UNL1        0.0806
     19 C           6.3471   -4.1697   23.7947 C.3     1  UNL1        0.1023
     20 C           6.7357   -6.1405   26.8471 C.3     1  UNL1        0.2522
     21 O           6.5573   -4.7480   26.3189 O.2     1  UNL1       -0.4715
     22 N           1.9104    0.5683   21.0962 N.pl3   1  UNL1       -0.2127
     23 H           1.9968    0.5721   22.0769 H       1  UNL1        0.1738
     24 S           0.9406    1.4951   20.4251 S.O2    1  UNL1        0.0759
     25 O          -0.0822    0.3985   20.3886 O.2     1  UNL1       -0.1499
     26 O           1.9633    2.5917   20.4615 O.2     1  UNL1       -0.1499
     27 C          -0.0293    2.4220   19.7540 C.ar    1  UNL1        0.1547
     28 C           0.1069    2.7179   18.2898 C.ar    1  UNL1        0.0521
     29 C          -0.8629    3.6448   17.6186 C.ar    1  UNL1        0.1416
     30 F          -0.7267    3.9408   16.1545 F       1  UNL1       -0.2041
     31 C          -1.9689    4.2757   18.4117 C.ar    1  UNL1        0.0320
     32 C          -2.1050    3.9797   19.8758 C.ar    1  UNL1        0.0333
     33 C          -1.1353    3.0529   20.5470 C.ar    1  UNL1        0.1590
     34 F          -1.2713    2.7569   22.0112 F       1  UNL1       -0.2027
@<TRIPOS>BOND
     1    20    21    1
     2    21    11    1
     3    11    12    2
     4    12    13    1
     5    13    14    2
     6    14    15    1
     7    15    16    2
     8    16    17    1
     9    17     9    1
    10     9    10    2
    11     9     1    1
    12     1     2   ar
    13     2     3    1
    14     2     4   ar
    15     4     5   ar
    16     5     6   ar
    17     6    22    1
    18    22    24    1
    19    24    25    2
    20    24    26    2
    21    24    27    1
    22    27    28   ar
    23    28    29   ar
    24    29    30    1
    25    29    31   ar
    26    31    32   ar
    27    32    33   ar
    28    33    34    1
    29     6     7   ar
    30     7     8    1
    31    17    18    2
    32    18    19    1
    33    19    11    1
    34    18    14    1
    35     7     1   ar
    36    33    27   ar
    37    22    23    1
