@<TRIPOS>MOLECULE
*****
 35 39 0 0 0
SMALL
GASTEIGER

@<TRIPOS>ATOM
      1 C         -10.5619  -16.4856   23.0922 C.ar    1  UNL1        0.1488
      2 C         -11.9686  -16.6086   22.5863 C.ar    1  UNL1        0.0390
      3 C         -12.2834  -17.5587   21.4692 C.ar    1  UNL1        0.0417
      4 C         -11.1916  -18.3859   20.8580 C.ar    1  UNL1        0.1640
      5 N         -11.1997  -19.3999   19.7526 N.ar    1  UNL1       -0.2234
      6 C          -9.7980  -19.9036   19.5753 C.ar    1  UNL1        0.1198
      7 C          -8.9236  -19.2009   20.5711 C.ar    1  UNL1        0.1066
      8 N          -9.7849  -18.2629   21.3638 N.ar    1  UNL1       -0.2095
      9 N          -9.4700  -17.3128   22.4810 N.ar    1  UNL1       -0.1489
     10 C          -7.4471  -19.4010   20.7439 C.ar    1  UNL1        0.0577
     11 C          -6.4999  -18.9652   19.6655 C.ar    1  UNL1        0.1049
     12 N          -5.0234  -19.1653   19.8383 N.ar    1  UNL1       -0.2119
     13 C          -4.4940  -19.8012   21.0894 C.ar    1  UNL1        0.2218
     14 N          -5.4412  -20.2370   22.1678 N.ar    1  UNL1       -0.2119
     15 C          -6.9177  -20.0369   21.9950 C.ar    1  UNL1        0.1049
     16 N          -3.0175  -20.0013   21.2622 N.pl3   1  UNL1       -0.2662
     17 H          -2.6721  -20.8656   21.5830 H       1  UNL1        0.1565
     18 C          -2.0672  -18.8846   20.9462 C.ar    1  UNL1        0.1620
     19 N          -0.9104  -19.1233   20.0217 N.ar    1  UNL1       -0.2267
     20 C           0.0400  -18.0066   19.7056 C.ar    1  UNL1        0.1005
     21 C          -0.1666  -16.6512   20.3142 C.ar    1  UNL1        0.0231
     22 C          -1.3235  -16.4125   21.2388 C.ar    1  UNL1        0.0341
     23 C          -2.2737  -17.5292   21.5548 C.ar    1  UNL1        0.1717
     24 F          -3.4306  -17.2906   22.4793 F       1  UNL1       -0.2012
     25 N         -10.2469  -15.5354   24.2094 N.pl3   1  UNL1       -0.3184
     26 H         -10.9565  -14.9666   24.5866 H       1  UNL1        0.1482
     27 N          -4.6629  -15.2007   26.3788 N.3     1  UNL1       -0.3222
     28 C          -6.0589  -15.2844   25.8364 C.3     1  UNL1        0.0509
     29 C          -6.3076  -15.0817   24.3712 C.3     1  UNL1        0.0172
     30 C          -7.7037  -15.1654   23.8288 C.3     1  UNL1        0.0209
     31 C          -8.8509  -15.4517   24.7517 C.3     1  UNL1        0.0705
     32 C          -8.6022  -15.6543   26.2170 C.3     1  UNL1        0.0209
     33 C          -7.2062  -15.5707   26.7594 C.3     1  UNL1        0.0172
     34 H          -4.0139  -15.0007   25.6177 H       1  UNL1        0.1188
     35 H          -4.4134  -16.0889   26.8139 H       1  UNL1        0.1188
@<TRIPOS>BOND
     1    28    27    1
     2    28    29    1
     3    29    30    1
     4    30    31    1
     5    31    25    1
     6    25     1    1
     7     1     2   ar
     8     2     3   ar
     9     3     4   ar
    10     4     5   ar
    11     5     6   ar
    12     6     7   ar
    13     7    10    1
    14    10    11   ar
    15    11    12   ar
    16    12    13   ar
    17    13    16    1
    18    16    18    1
    19    18    19   ar
    20    19    20   ar
    21    20    21   ar
    22    21    22   ar
    23    22    23   ar
    24    23    24    1
    25    13    14   ar
    26    14    15   ar
    27     7     8   ar
    28     8     9   ar
    29    31    32    1
    30    32    33    1
    31    33    28    1
    32     9     1   ar
    33     8     4   ar
    34    15    10   ar
    35    23    18   ar
    36    27    34    1
    37    27    35    1
    38    25    26    1
    39    16    17    1
@<TRIPOS>MOLECULE
*****
 35 39 0 0 0
SMALL
GASTEIGER

@<TRIPOS>ATOM
      1 C           6.8779   -5.2463   28.9898 C.ar    1  UNL1        0.1488
      2 C           8.1930   -5.8230   29.4234 C.ar    1  UNL1        0.0390
      3 C           8.9553   -5.1890   30.5489 C.ar    1  UNL1        0.0417
      4 C           8.4026   -3.9784   31.2409 C.ar    1  UNL1        0.1640
      5 N           8.9242   -3.1437   32.3729 N.ar    1  UNL1       -0.2234
      6 C           7.9314   -2.0512   32.6389 C.ar    1  UNL1        0.1198
      7 C           6.7963   -2.2106   31.6713 C.ar    1  UNL1        0.1066
      8 N           7.0875   -3.4017   30.8073 N.ar    1  UNL1       -0.2095
      9 N           6.3252   -4.0357   29.6818 N.ar    1  UNL1       -0.1489
     10 C           5.5830   -1.3331   31.5832 C.ar    1  UNL1        0.0577
     11 C           5.4600   -0.3327   30.4723 C.ar    1  UNL1        0.1049
     12 N           4.2466    0.5448   30.3842 N.ar    1  UNL1       -0.2119
     13 C           3.1563    0.4220   31.4070 C.ar    1  UNL1        0.2218
     14 N           3.2793   -0.5784   32.5179 N.ar    1  UNL1       -0.2119
     15 C           4.4927   -1.4559   32.6060 C.ar    1  UNL1        0.1049
     16 N           1.9430    1.2995   31.3189 N.pl3   1  UNL1       -0.2662
     17 H           1.7329    1.9239   32.0505 H       1  UNL1        0.1565
     18 C           1.0497    1.2257   30.1161 C.ar    1  UNL1        0.1620
     19 N           0.4024   -0.0744   29.7414 N.ar    1  UNL1       -0.2267
     20 C          -0.4909   -0.1483   28.5386 C.ar    1  UNL1        0.1005
     21 C          -0.7368    1.0780   27.7107 C.ar    1  UNL1        0.0231
     22 C          -0.0895    2.3783   28.0854 C.ar    1  UNL1        0.0341
     23 C           0.8038    2.4521   29.2881 C.ar    1  UNL1        0.1717
     24 F           1.4512    3.7522   29.6629 F       1  UNL1       -0.2012
     25 N           6.1155   -5.8803   27.8643 N.pl3   1  UNL1       -0.3184
     26 H           5.1722   -6.1328   27.9894 H       1  UNL1        0.1482
     27 N           8.8148   -6.8774   22.5994 N.3     1  UNL1       -0.3222
     28 C           8.1399   -6.6282   23.9156 C.3     1  UNL1        0.0509
     29 C           7.5946   -5.2674   24.2329 C.3     1  UNL1        0.0172
     30 C           6.9197   -5.0181   25.5492 C.3     1  UNL1        0.0209
     31 C           6.7903   -6.1296   26.5481 C.3     1  UNL1        0.0705
     32 C           7.3357   -7.4905   26.2307 C.3     1  UNL1        0.0209
     33 C           8.0105   -7.7397   24.9144 C.3     1  UNL1        0.0172
     34 H           8.8137   -6.0188   22.0488 H       1  UNL1        0.1188
     35 H           8.3130   -7.6068   22.0928 H       1  UNL1        0.1188
@<TRIPOS>BOND
     1    28    27    1
     2    28    29    1
     3    29    30    1
     4    30    31    1
     5    31    25    1
     6    25     1    1
     7     1     2   ar
     8     2     3   ar
     9     3     4   ar
    10     4     5   ar
    11     5     6   ar
    12     6     7   ar
    13     7    10    1
    14    10    11   ar
    15    11    12   ar
    16    12    13   ar
    17    13    16    1
    18    16    18    1
    19    18    19   ar
    20    19    20   ar
    21    20    21   ar
    22    21    22   ar
    23    22    23   ar
    24    23    24    1
    25    13    14   ar
    26    14    15   ar
    27     7     8   ar
    28     8     9   ar
    29    31    32    1
    30    32    33    1
    31    33    28    1
    32     9     1   ar
    33     8     4   ar
    34    15    10   ar
    35    23    18   ar
    36    27    34    1
    37    27    35    1
    38    25    26    1
    39    16    17    1
@<TRIPOS>MOLECULE
*****
 35 39 0 0 0
SMALL
GASTEIGER

@<TRIPOS>ATOM
      1 C         -12.8914   -1.0960   16.5477 C.ar    1  UNL1        0.1488
      2 C         -11.6892   -0.3057   16.1235 C.ar    1  UNL1        0.0390
      3 C         -10.3443   -0.9661   16.0529 C.ar    1  UNL1        0.0417
      4 C         -10.2016   -2.4168   16.4065 C.ar    1  UNL1        0.1640
      5 N          -9.0132   -3.3318   16.4308 N.ar    1  UNL1       -0.2234
      6 C          -9.4810   -4.6876   16.8700 C.ar    1  UNL1        0.1198
      7 C         -10.9585   -4.6105   17.1172 C.ar    1  UNL1        0.1066
      8 N         -11.4038   -3.2071   16.8307 N.ar    1  UNL1       -0.2095
      9 N         -12.7487   -2.5467   16.9014 N.ar    1  UNL1       -0.1489
     10 C         -11.8365   -5.7388   17.5712 C.ar    1  UNL1        0.0577
     11 C         -12.4811   -5.6897   18.9247 C.ar    1  UNL1        0.1049
     12 N         -13.3591   -6.8179   19.3787 N.ar    1  UNL1       -0.2119
     13 C         -13.5926   -7.9953   18.4792 C.ar    1  UNL1        0.2218
     14 N         -12.9480   -8.0445   17.1256 N.ar    1  UNL1       -0.2119
     15 C         -12.0700   -6.9162   16.6717 C.ar    1  UNL1        0.1049
     16 N         -14.4706   -9.1236   18.9331 N.pl3   1  UNL1       -0.2662
     17 H         -14.0782   -9.8938   19.4044 H       1  UNL1        0.1565
     18 C         -15.9465   -9.0784   18.6691 C.ar    1  UNL1        0.1620
     19 N         -16.6886   -7.7796   18.7794 N.ar    1  UNL1       -0.2267
     20 C         -18.1646   -7.7343   18.5154 C.ar    1  UNL1        0.1005
     21 C         -18.8982   -8.9879   18.1411 C.ar    1  UNL1        0.0231
     22 C         -18.1561  -10.2868   18.0307 C.ar    1  UNL1        0.0341
     23 C         -16.6802  -10.3320   18.2948 C.ar    1  UNL1        0.1717
     24 F         -15.9380  -11.6308   18.1845 F       1  UNL1       -0.2012
     25 N         -14.2364   -0.4356   16.6184 N.pl3   1  UNL1       -0.3184
     26 H         -14.4562    0.3007   16.0029 H       1  UNL1        0.1482
     27 N         -18.2768   -2.2813   20.6518 N.3     1  UNL1       -0.3222
     28 C         -17.2667   -1.8199   19.6435 C.3     1  UNL1        0.0509
     29 C         -16.2201   -0.8190   20.0343 C.3     1  UNL1        0.0172
     30 C         -15.2099   -0.3576   19.0259 C.3     1  UNL1        0.0209
     31 C         -15.2465   -0.8970   17.6267 C.3     1  UNL1        0.0705
     32 C         -16.2932   -1.8979   17.2359 C.3     1  UNL1        0.0209
     33 C         -17.3033   -2.3593   18.2443 C.3     1  UNL1        0.0172
     34 H         -18.1047   -1.8158   21.5429 H       1  UNL1        0.1188
     35 H         -18.1978   -3.2908   20.7748 H       1  UNL1        0.1188
@<TRIPOS>BOND
     1    28    27    1
     2    28    29    1
     3    29    30    1
     4    30    31    1
     5    31    25    1
     6    25     1    1
     7     1     2   ar
     8     2     3   ar
     9     3     4   ar
    10     4     5   ar
    11     5     6   ar
    12     6     7   ar
    13     7    10    1
    14    10    11   ar
    15    11    12   ar
    16    12    13   ar
    17    13    16    1
    18    16    18    1
    19    18    19   ar
    20    19    20   ar
    21    20    21   ar
    22    21    22   ar
    23    22    23   ar
    24    23    24    1
    25    13    14   ar
    26    14    15   ar
    27     7     8   ar
    28     8     9   ar
    29    31    32    1
    30    32    33    1
    31    33    28    1
    32     9     1   ar
    33     8     4   ar
    34    15    10   ar
    35    23    18   ar
    36    27    34    1
    37    27    35    1
    38    25    26    1
    39    16    17    1
@<TRIPOS>MOLECULE
*****
 35 39 0 0 0
SMALL
GASTEIGER

@<TRIPOS>ATOM
      1 C          -3.9398    3.4667   21.0234 C.ar    1  UNL1        0.1488
      2 C          -4.5026    4.6500   20.2934 C.ar    1  UNL1        0.0390
      3 C          -3.7048    5.3109   19.2086 C.ar    1  UNL1        0.0417
      4 C          -2.3443    4.7884   18.8538 C.ar    1  UNL1        0.1640
      5 N          -1.3331    5.2302   17.8376 N.ar    1  UNL1       -0.2234
      6 C          -0.1453    4.3198   17.9397 C.ar    1  UNL1        0.1198
      7 C          -0.4224    3.3154   19.0188 C.ar    1  UNL1        0.1066
      8 N          -1.7815    3.6051   19.5837 N.ar    1  UNL1       -0.2095
      9 N          -2.5792    2.9442   20.6685 N.ar    1  UNL1       -0.1489
     10 C           0.4979    2.2147   19.4562 C.ar    1  UNL1        0.0577
     11 C           0.9320    1.1659   18.4756 C.ar    1  UNL1        0.1049
     12 N           1.8523    0.0652   18.9130 N.ar    1  UNL1       -0.2119
     13 C           2.3385    0.0131   20.3310 C.ar    1  UNL1        0.2218
     14 N           1.9044    1.0619   21.3117 N.ar    1  UNL1       -0.2119
     15 C           0.9841    2.1626   20.8742 C.ar    1  UNL1        0.1049
     16 N           3.2589   -1.0876   20.7684 N.pl3   1  UNL1       -0.2662
     17 H           3.1006   -1.5515   21.6223 H       1  UNL1        0.1565
     18 C           4.4204   -1.4817   19.9049 C.ar    1  UNL1        0.1620
     19 N           5.6590   -0.6361   19.8825 N.ar    1  UNL1       -0.2267
     20 C           6.8206   -1.0301   19.0190 C.ar    1  UNL1        0.1005
     21 C           6.7434   -2.2698   18.1780 C.ar    1  UNL1        0.0231
     22 C           5.5047   -3.1155   18.2005 C.ar    1  UNL1        0.0341
     23 C           4.3432   -2.7214   19.0640 C.ar    1  UNL1        0.1717
     24 F           3.1044   -3.5670   19.0865 F       1  UNL1       -0.2012
     25 N          -4.7375    2.8058   22.1082 N.pl3   1  UNL1       -0.3184
     26 H          -5.1904    1.9492   21.9340 H       1  UNL1        0.1482
     27 N          -5.1685    5.3827   27.5094 N.3     1  UNL1       -0.3222
     28 C          -5.0607    4.7385   26.1591 C.3     1  UNL1        0.0509
     29 C          -6.1948    4.8476   25.1835 C.3     1  UNL1        0.0172
     30 C          -6.0871    4.2034   23.8331 C.3     1  UNL1        0.0209
     31 C          -4.8453    3.4500   23.4585 C.3     1  UNL1        0.0705
     32 C          -3.7112    3.3409   24.4342 C.3     1  UNL1        0.0209
     33 C          -3.8189    3.9851   25.7845 C.3     1  UNL1        0.0172
     34 H          -6.0723    5.8480   27.5930 H       1  UNL1        0.1188
     35 H          -4.4215    6.0686   27.6195 H       1  UNL1        0.1188
@<TRIPOS>BOND
     1    28    27    1
     2    28    29    1
     3    29    30    1
     4    30    31    1
     5    31    25    1
     6    25     1    1
     7     1     2   ar
     8     2     3   ar
     9     3     4   ar
    10     4     5   ar
    11     5     6   ar
    12     6     7   ar
    13     7    10    1
    14    10    11   ar
    15    11    12   ar
    16    12    13   ar
    17    13    16    1
    18    16    18    1
    19    18    19   ar
    20    19    20   ar
    21    20    21   ar
    22    21    22   ar
    23    22    23   ar
    24    23    24    1
    25    13    14   ar
    26    14    15   ar
    27     7     8   ar
    28     8     9   ar
    29    31    32    1
    30    32    33    1
    31    33    28    1
    32     9     1   ar
    33     8     4   ar
    34    15    10   ar
    35    23    18   ar
    36    27    34    1
    37    27    35    1
    38    25    26    1
    39    16    17    1
@<TRIPOS>MOLECULE
*****
 35 39 0 0 0
SMALL
GASTEIGER

@<TRIPOS>ATOM
      1 C           4.5180   -3.2719   20.9438 C.ar    1  UNL1        0.1488
      2 C           5.5239   -3.7826   19.9552 C.ar    1  UNL1        0.0390
      3 C           5.6220   -3.1584   18.5948 C.ar    1  UNL1        0.0417
      4 C           4.7144   -2.0235   18.2230 C.ar    1  UNL1        0.1640
      5 N           4.5808   -1.2155   16.9663 N.ar    1  UNL1       -0.2234
      6 C           3.4924   -0.2053   17.1783 C.ar    1  UNL1        0.1198
      7 C           2.9534   -0.3891   18.5660 C.ar    1  UNL1        0.1066
      8 N           3.7086   -1.5128   19.2116 N.ar    1  UNL1       -0.2095
      9 N           3.6104   -2.1370   20.5720 N.ar    1  UNL1       -0.1489
     10 C           1.8523    0.4104   19.1972 C.ar    1  UNL1        0.0577
     11 C           1.7636    1.8878   18.9533 C.ar    1  UNL1        0.1049
     12 N           0.6626    2.6874   19.5846 N.ar    1  UNL1       -0.2119
     13 C          -0.3497    2.0096   20.4597 C.ar    1  UNL1        0.2218
     14 N          -0.2610    0.5322   20.7036 N.ar    1  UNL1       -0.2119
     15 C           0.8400   -0.2673   20.0723 C.ar    1  UNL1        0.1049
     16 N          -1.4507    2.8092   21.0909 N.pl3   1  UNL1       -0.2662
     17 H          -1.3970    3.0552   22.0427 H       1  UNL1        0.1565
     18 C          -2.6336    3.2338   20.2721 C.ar    1  UNL1        0.1620
     19 N          -2.4429    3.6730   18.8506 N.ar    1  UNL1       -0.2267
     20 C          -3.6257    4.0977   18.0317 C.ar    1  UNL1        0.1005
     21 C          -4.9992    4.0831   18.6344 C.ar    1  UNL1        0.0231
     22 C          -5.1900    3.6439   20.0560 C.ar    1  UNL1        0.0341
     23 C          -4.0071    3.2193   20.8748 C.ar    1  UNL1        0.1717
     24 F          -4.1977    2.7801   22.2963 F       1  UNL1       -0.2012
     25 N           4.4198   -3.8961   22.3043 N.pl3   1  UNL1       -0.3184
     26 H           3.9310   -4.7423   22.4235 H       1  UNL1        0.1482
     27 N           7.0056   -1.2353   27.0195 N.3     1  UNL1       -0.3222
     28 C           6.3591   -1.9005   25.8407 C.3     1  UNL1        0.0509
     29 C           6.9491   -3.1567   25.2717 C.3     1  UNL1        0.0172
     30 C           6.3027   -3.8220   24.0929 C.3     1  UNL1        0.0209
     31 C           5.0662   -3.2309   23.4831 C.3     1  UNL1        0.0705
     32 C           4.4763   -1.9746   24.0521 C.3     1  UNL1        0.0209
     33 C           5.1227   -1.3094   25.2309 C.3     1  UNL1        0.0172
     34 H           7.8282   -1.7683   27.3018 H       1  UNL1        0.1188
     35 H           6.3429   -1.1971   27.7940 H       1  UNL1        0.1188
@<TRIPOS>BOND
     1    28    27    1
     2    28    29    1
     3    29    30    1
     4    30    31    1
     5    31    25    1
     6    25     1    1
     7     1     2   ar
     8     2     3   ar
     9     3     4   ar
    10     4     5   ar
    11     5     6   ar
    12     6     7   ar
    13     7    10    1
    14    10    11   ar
    15    11    12   ar
    16    12    13   ar
    17    13    16    1
    18    16    18    1
    19    18    19   ar
    20    19    20   ar
    21    20    21   ar
    22    21    22   ar
    23    22    23   ar
    24    23    24    1
    25    13    14   ar
    26    14    15   ar
    27     7     8   ar
    28     8     9   ar
    29    31    32    1
    30    32    33    1
    31    33    28    1
    32     9     1   ar
    33     8     4   ar
    34    15    10   ar
    35    23    18   ar
    36    27    34    1
    37    27    35    1
    38    25    26    1
    39    16    17    1
@<TRIPOS>MOLECULE
*****
 35 39 0 0 0
SMALL
GASTEIGER

@<TRIPOS>ATOM
      1 C         -12.4483   -6.9947   18.5838 C.ar    1  UNL1        0.1488
      2 C         -11.0542   -7.3748   18.1814 C.ar    1  UNL1        0.0390
      3 C         -10.0700   -6.3120   17.7916 C.ar    1  UNL1        0.0417
      4 C         -10.4800   -4.8692   17.8042 C.ar    1  UNL1        0.1640
      5 N          -9.7338   -3.6108   17.4728 N.ar    1  UNL1       -0.2234
      6 C         -10.6669   -2.4530   17.6703 C.ar    1  UNL1        0.1198
      7 C         -11.9896   -2.9959   18.1239 C.ar    1  UNL1        0.1066
      8 N         -11.8741   -4.4891   18.2066 N.ar    1  UNL1       -0.2095
      9 N         -12.8582   -5.5519   18.5964 N.ar    1  UNL1       -0.1489
     10 C         -13.2131   -2.1874   18.4393 C.ar    1  UNL1        0.0577
     11 C         -13.6593   -1.1052   17.5013 C.ar    1  UNL1        0.1049
     12 N         -14.8828   -0.2967   17.8167 N.ar    1  UNL1       -0.2119
     13 C         -15.6601   -0.5704   19.0700 C.ar    1  UNL1        0.2218
     14 N         -15.2139   -1.6526   20.0080 N.ar    1  UNL1       -0.2119
     15 C         -13.9904   -2.4611   19.6926 C.ar    1  UNL1        0.1049
     16 N         -16.8836    0.2380   19.3854 N.pl3   1  UNL1       -0.2662
     17 H         -17.7344    0.0411   18.9309 H       1  UNL1        0.1565
     18 C         -16.8107    1.3466   20.3933 C.ar    1  UNL1        0.1620
     19 N         -17.4867    1.1960   21.7238 N.ar    1  UNL1       -0.2267
     20 C         -17.4140    2.3045   22.7318 C.ar    1  UNL1        0.1005
     21 C         -16.6652    3.5635   22.4092 C.ar    1  UNL1        0.0231
     22 C         -15.9891    3.7142   21.0786 C.ar    1  UNL1        0.0341
     23 C         -16.0619    2.6056   20.0707 C.ar    1  UNL1        0.1717
     24 F         -15.3860    2.7561   18.7401 F       1  UNL1       -0.2012
     25 N         -13.4325   -8.0575   18.9736 N.pl3   1  UNL1       -0.3184
     26 H         -13.1341   -8.8371   19.4955 H       1  UNL1        0.1482
     27 N         -19.1874   -7.5572   17.3518 N.3     1  UNL1       -0.3222
     28 C         -17.7487   -7.6823   17.7573 C.3     1  UNL1        0.0509
     29 C         -17.3384   -7.3823   19.1685 C.3     1  UNL1        0.0172
     30 C         -15.8996   -7.5074   19.5740 C.3     1  UNL1        0.0209
     31 C         -14.8712   -7.9324   18.5682 C.3     1  UNL1        0.0705
     32 C         -15.2815   -8.2323   17.1569 C.3     1  UNL1        0.0209
     33 C         -16.7203   -8.1073   16.7514 C.3     1  UNL1        0.0172
     34 H         -19.7423   -7.2605   18.1546 H       1  UNL1        0.1188
     35 H         -19.5265   -8.4597   17.0190 H       1  UNL1        0.1188
@<TRIPOS>BOND
     1    28    27    1
     2    28    29    1
     3    29    30    1
     4    30    31    1
     5    31    25    1
     6    25     1    1
     7     1     2   ar
     8     2     3   ar
     9     3     4   ar
    10     4     5   ar
    11     5     6   ar
    12     6     7   ar
    13     7    10    1
    14    10    11   ar
    15    11    12   ar
    16    12    13   ar
    17    13    16    1
    18    16    18    1
    19    18    19   ar
    20    19    20   ar
    21    20    21   ar
    22    21    22   ar
    23    22    23   ar
    24    23    24    1
    25    13    14   ar
    26    14    15   ar
    27     7     8   ar
    28     8     9   ar
    29    31    32    1
    30    32    33    1
    31    33    28    1
    32     9     1   ar
    33     8     4   ar
    34    15    10   ar
    35    23    18   ar
    36    27    34    1
    37    27    35    1
    38    25    26    1
    39    16    17    1
@<TRIPOS>MOLECULE
*****
 35 39 0 0 0
SMALL
GASTEIGER

@<TRIPOS>ATOM
      1 C         -16.8269    3.0064   20.9133 C.ar    1  UNL1        0.1488
      2 C         -18.3117    2.9823   21.1247 C.ar    1  UNL1        0.0390
      3 C         -19.0736    1.7023   20.9490 C.ar    1  UNL1        0.0417
      4 C         -18.3507    0.4462   20.5619 C.ar    1  UNL1        0.1640
      5 N         -18.8310   -0.9538   20.3183 N.ar    1  UNL1       -0.2234
      6 C         -17.6429   -1.7949   19.9563 C.ar    1  UNL1        0.1198
      7 C         -16.4284   -0.9148   19.9763 C.ar    1  UNL1        0.1066
      8 N         -16.8659    0.4703   20.3506 N.ar    1  UNL1       -0.2095
      9 N         -16.1040    1.7504   20.5262 N.ar    1  UNL1       -0.1489
     10 C         -15.0232   -1.3443   19.6749 C.ar    1  UNL1        0.0577
     11 C         -14.1887   -0.5559   18.7094 C.ar    1  UNL1        0.1049
     12 N         -12.7835   -0.9855   18.4080 N.ar    1  UNL1       -0.2119
     13 C         -12.2127   -2.2034   19.0720 C.ar    1  UNL1        0.2218
     14 N         -13.0472   -2.9918   20.0374 N.ar    1  UNL1       -0.2119
     15 C         -14.4525   -2.5622   20.3388 C.ar    1  UNL1        0.1049
     16 N         -10.8075   -2.6329   18.7706 N.pl3   1  UNL1       -0.2662
     17 H         -10.0858   -1.9644   18.7332 H       1  UNL1        0.1565
     18 C         -10.5020   -4.0810   18.5262 C.ar    1  UNL1        0.1620
     19 N          -9.5945   -4.8241   19.4611 N.ar    1  UNL1       -0.2267
     20 C          -9.2889   -6.2722   19.2168 C.ar    1  UNL1        0.1005
     21 C          -9.8908   -6.9771   18.0375 C.ar    1  UNL1        0.0231
     22 C         -10.7984   -6.2339   17.1024 C.ar    1  UNL1        0.0341
     23 C         -11.1039   -4.7858   17.3468 C.ar    1  UNL1        0.1717
     24 F         -12.0114   -4.0426   16.4119 F       1  UNL1       -0.2012
     25 N         -16.0650    4.2865   21.0890 N.pl3   1  UNL1       -0.3184
     26 H         -15.9763    4.9140   20.3355 H       1  UNL1        0.1482
     27 N         -13.5576    5.5830   26.3835 N.3     1  UNL1       -0.3222
     28 C         -14.1844    5.2589   25.0599 C.3     1  UNL1        0.0509
     29 C         -15.5307    4.5994   25.0090 C.3     1  UNL1        0.0172
     30 C         -16.1576    4.2752   23.6854 C.3     1  UNL1        0.0209
     31 C         -15.4382    4.6106   22.4126 C.3     1  UNL1        0.0705
     32 C         -14.0919    5.2702   22.4635 C.3     1  UNL1        0.0209
     33 C         -13.4650    5.5943   23.7871 C.3     1  UNL1        0.0172
     34 H         -14.1801    5.2882   27.1358 H       1  UNL1        0.1188
     35 H         -13.3993    6.5886   26.4476 H       1  UNL1        0.1188
@<TRIPOS>BOND
     1    28    27    1
     2    28    29    1
     3    29    30    1
     4    30    31    1
     5    31    25    1
     6    25     1    1
     7     1     2   ar
     8     2     3   ar
     9     3     4   ar
    10     4     5   ar
    11     5     6   ar
    12     6     7   ar
    13     7    10    1
    14    10    11   ar
    15    11    12   ar
    16    12    13   ar
    17    13    16    1
    18    16    18    1
    19    18    19   ar
    20    19    20   ar
    21    20    21   ar
    22    21    22   ar
    23    22    23   ar
    24    23    24    1
    25    13    14   ar
    26    14    15   ar
    27     7     8   ar
    28     8     9   ar
    29    31    32    1
    30    32    33    1
    31    33    28    1
    32     9     1   ar
    33     8     4   ar
    34    15    10   ar
    35    23    18   ar
    36    27    34    1
    37    27    35    1
    38    25    26    1
    39    16    17    1
@<TRIPOS>MOLECULE
*****
 35 39 0 0 0
SMALL
GASTEIGER

@<TRIPOS>ATOM
      1 C           6.5177   -3.3108   30.0693 C.ar    1  UNL1        0.1488
      2 C           6.8405   -4.3123   31.1383 C.ar    1  UNL1        0.0390
      3 C           7.3666   -5.6660   30.7636 C.ar    1  UNL1        0.0417
      4 C           7.5700   -6.0183   29.3198 C.ar    1  UNL1        0.1640
      5 N           8.0704   -7.2647   28.6517 N.ar    1  UNL1       -0.2234
      6 C           8.0569   -7.0335   27.1697 C.ar    1  UNL1        0.1198
      7 C           7.5482   -5.6443   26.9219 C.ar    1  UNL1        0.1066
      8 N           7.2473   -5.0169   28.2508 N.ar    1  UNL1       -0.2095
      9 N           6.7212   -3.6632   28.6255 N.ar    1  UNL1       -0.1489
     10 C           7.3714   -4.9962   25.5808 C.ar    1  UNL1        0.0577
     11 C           7.7438   -5.7409   24.3330 C.ar    1  UNL1        0.1049
     12 N           7.5670   -5.0928   22.9918 N.ar    1  UNL1       -0.2119
     13 C           7.0179   -3.7001   22.8983 C.ar    1  UNL1        0.2218
     14 N           6.6456   -2.9555   24.1461 N.ar    1  UNL1       -0.2119
     15 C           6.8223   -3.6035   25.4872 C.ar    1  UNL1        0.1049
     16 N           6.8411   -3.0521   21.5572 N.pl3   1  UNL1       -0.2662
     17 H           7.5033   -2.3986   21.2351 H       1  UNL1        0.1565
     18 C           5.6554   -3.3996   20.7066 C.ar    1  UNL1        0.1620
     19 N           5.6198   -4.7040   19.9668 N.ar    1  UNL1       -0.2267
     20 C           4.4341   -5.0516   19.1163 C.ar    1  UNL1        0.1005
     21 C           3.2842   -4.0949   19.0056 C.ar    1  UNL1        0.0231
     22 C           3.3198   -2.7904   19.7455 C.ar    1  UNL1        0.0341
     23 C           4.5055   -2.4429   20.5960 C.ar    1  UNL1        0.1717
     24 F           4.5413   -1.1385   21.3358 F       1  UNL1       -0.2012
     25 N           5.9916   -1.9570   30.4439 N.pl3   1  UNL1       -0.3184
     26 H           5.7826   -1.2986   29.7424 H       1  UNL1        0.1482
     27 N           5.1607   -0.5539   36.2181 N.3     1  UNL1       -0.3222
     28 C           5.3684   -0.9047   34.7745 C.3     1  UNL1        0.0509
     29 C           4.3037   -1.6465   34.0223 C.3     1  UNL1        0.0172
     30 C           4.5114   -1.9973   32.5787 C.3     1  UNL1        0.0209
     31 C           5.7839   -1.6062   31.8874 C.3     1  UNL1        0.0705
     32 C           6.8487   -0.8643   32.6398 C.3     1  UNL1        0.0209
     33 C           6.6409   -0.5136   34.0833 C.3     1  UNL1        0.0172
     34 H           4.2485   -0.8937   36.5227 H       1  UNL1        0.1188
     35 H           5.2013    0.4590   36.3311 H       1  UNL1        0.1188
@<TRIPOS>BOND
     1    28    27    1
     2    28    29    1
     3    29    30    1
     4    30    31    1
     5    31    25    1
     6    25     1    1
     7     1     2   ar
     8     2     3   ar
     9     3     4   ar
    10     4     5   ar
    11     5     6   ar
    12     6     7   ar
    13     7    10    1
    14    10    11   ar
    15    11    12   ar
    16    12    13   ar
    17    13    16    1
    18    16    18    1
    19    18    19   ar
    20    19    20   ar
    21    20    21   ar
    22    21    22   ar
    23    22    23   ar
    24    23    24    1
    25    13    14   ar
    26    14    15   ar
    27     7     8   ar
    28     8     9   ar
    29    31    32    1
    30    32    33    1
    31    33    28    1
    32     9     1   ar
    33     8     4   ar
    34    15    10   ar
    35    23    18   ar
    36    27    34    1
    37    27    35    1
    38    25    26    1
    39    16    17    1
@<TRIPOS>MOLECULE
*****
 35 39 0 0 0
SMALL
GASTEIGER

@<TRIPOS>ATOM
      1 C           3.9811   -1.2710   18.9355 C.ar    1  UNL1        0.1488
      2 C           4.6534   -2.3687   18.1654 C.ar    1  UNL1        0.0390
      3 C           5.4045   -3.4440   18.8931 C.ar    1  UNL1        0.0417
      4 C           5.4833   -3.4217   20.3908 C.ar    1  UNL1        0.1640
      5 N           6.1468   -4.3391   21.3748 N.ar    1  UNL1       -0.2234
      6 C           5.8845   -3.8084   22.7530 C.ar    1  UNL1        0.1198
      7 C           5.0590   -2.5630   22.6208 C.ar    1  UNL1        0.1066
      8 N           4.8110   -2.3240   21.1609 N.ar    1  UNL1       -0.2095
      9 N           4.0599   -1.2487   20.4333 N.ar    1  UNL1       -0.1489
     10 C           4.5677   -1.7068   23.7503 C.ar    1  UNL1        0.0577
     11 C           3.2855   -0.9414   23.6084 C.ar    1  UNL1        0.1049
     12 N           2.7941   -0.0853   24.7378 N.ar    1  UNL1       -0.2119
     13 C           3.5849    0.0055   26.0091 C.ar    1  UNL1        0.2218
     14 N           4.8671   -0.7600   26.1510 N.ar    1  UNL1       -0.2119
     15 C           5.3584   -1.6161   25.0216 C.ar    1  UNL1        0.1049
     16 N           3.0936    0.8616   27.1386 N.pl3   1  UNL1       -0.2662
     17 H           3.7171    1.4604   27.6096 H       1  UNL1        0.1565
     18 C           1.6523    0.8054   27.5503 C.ar    1  UNL1        0.1620
     19 N           0.6448    1.6886   26.8760 N.ar    1  UNL1       -0.2267
     20 C          -0.7966    1.6324   27.2877 C.ar    1  UNL1        0.1005
     21 C          -1.2303    0.6929   28.3737 C.ar    1  UNL1        0.0231
     22 C          -0.2227   -0.1904   29.0480 C.ar    1  UNL1        0.0341
     23 C           1.2186   -0.1341   28.6362 C.ar    1  UNL1        0.1717
     24 F           2.2262   -1.0174   29.3104 F       1  UNL1       -0.2012
     25 N           3.2300   -0.1957   18.2078 N.pl3   1  UNL1       -0.3184
     26 H           3.4878    0.0500   17.2900 H       1  UNL1        0.1482
     27 N          -1.3457    2.6086   20.8909 N.3     1  UNL1       -0.3222
     28 C          -0.2018    1.9075   20.2201 C.3     1  UNL1        0.0509
     29 C           0.0421    0.4508   20.4815 C.3     1  UNL1        0.0172
     30 C           1.1860   -0.2503   19.8107 C.3     1  UNL1        0.0209
     31 C           2.0861    0.5054   18.8786 C.3     1  UNL1        0.0705
     32 C           1.8422    1.9622   18.6173 C.3     1  UNL1        0.0209
     33 C           0.6983    2.6633   19.2880 C.3     1  UNL1        0.0172
     34 H          -1.8478    1.9485   21.4847 H       1  UNL1        0.1188
     35 H          -1.9795    2.9793   20.1829 H       1  UNL1        0.1188
@<TRIPOS>BOND
     1    28    27    1
     2    28    29    1
     3    29    30    1
     4    30    31    1
     5    31    25    1
     6    25     1    1
     7     1     2   ar
     8     2     3   ar
     9     3     4   ar
    10     4     5   ar
    11     5     6   ar
    12     6     7   ar
    13     7    10    1
    14    10    11   ar
    15    11    12   ar
    16    12    13   ar
    17    13    16    1
    18    16    18    1
    19    18    19   ar
    20    19    20   ar
    21    20    21   ar
    22    21    22   ar
    23    22    23   ar
    24    23    24    1
    25    13    14   ar
    26    14    15   ar
    27     7     8   ar
    28     8     9   ar
    29    31    32    1
    30    32    33    1
    31    33    28    1
    32     9     1   ar
    33     8     4   ar
    34    15    10   ar
    35    23    18   ar
    36    27    34    1
    37    27    35    1
    38    25    26    1
    39    16    17    1
