@<TRIPOS>MOLECULE
*****
 31 34 0 0 0
SMALL
GASTEIGER

@<TRIPOS>ATOM
      1 C           4.6894   -3.2557   22.3266 C.2     1  UNL1        0.0044
      2 C           6.1571   -3.1150   22.6020 C.2     1  UNL1        0.0579
      3 C           7.0230   -4.3361   22.6960 C.2     1  UNL1        0.2492
      4 O           7.6501   -4.9079   21.4591 O.2     1  UNL1       -0.2699
      5 N           7.2619   -4.9856   24.0268 N.am    1  UNL1       -0.2732
      6 C           6.6349   -4.4139   25.2637 C.3     1  UNL1        0.1111
      7 C           6.8737   -5.0634   26.5946 C.3     1  UNL1        0.0942
      8 N           7.7396   -6.2846   26.6885 N.3     1  UNL1       -0.2646
      9 C           8.3667   -6.8563   25.4516 C.3     1  UNL1        0.0942
     10 C           8.1279   -6.2069   24.1207 C.3     1  UNL1        0.1111
     11 C           7.9785   -6.9340   28.0193 C.3     1  UNL1        0.1221
     12 C           8.0322   -6.0976   29.2633 C.ar    1  UNL1        0.1154
     13 C           9.2746   -5.6876   29.9971 C.ar    1  UNL1        0.1971
     14 O           8.8633   -4.8608   31.1791 O.2     1  UNL1       -0.4356
     15 C           7.3666   -4.7598   31.1758 C.ar    1  UNL1        0.2061
     16 C           6.5304   -4.0237   32.1802 C.3     1  UNL1        0.0950
     17 N           6.8531   -5.5242   29.9917 N.ar    1  UNL1       -0.2150
     18 C           3.2921   -1.5924   20.9014 C.ar    1  UNL1        0.0048
     19 C           2.4262   -0.3712   20.8074 C.ar    1  UNL1        0.0091
     20 C           2.0917    0.4080   22.0446 C.ar    1  UNL1        0.0574
     21 CL          1.2258    1.6293   21.9507 Cl      1  UNL1       -0.0823
     22 C           2.6230   -0.0340   23.3759 C.ar    1  UNL1        0.0114
     23 C           3.4889   -1.2552   23.4699 C.ar    1  UNL1        0.0006
     24 C           3.8234   -2.0344   22.2326 C.ar    1  UNL1       -0.0018
     25 C           3.6267   -2.3716   19.6640 C.3     1  UNL1        0.1777
     26 C           6.9888    0.6687   16.9560 C.3     1  UNL1        0.0776
     27 C           6.3011   -0.5313   17.5365 C.ar    1  UNL1        0.1838
     28 N           6.6848   -1.9634   17.3088 N.ar    1  UNL1       -0.1123
     29 N           5.7297   -2.8271   18.0781 N.ar    1  UNL1       -0.0451
     30 N           4.7556   -1.9288   18.7812 N.ar    1  UNL1       -0.1467
     31 N           5.1088   -0.5099   18.4464 N.ar    1  UNL1       -0.1339
@<TRIPOS>BOND
     1    26    27    1
     2    27    28   ar
     3    28    29   ar
     4    29    30   ar
     5    30    25    1
     6    25    18    1
     7    18    19   ar
     8    19    20   ar
     9    20    21    1
    10    20    22   ar
    11    22    23   ar
    12    23    24   ar
    13    24     1    1
    14     1     2    2
    15     2     3    1
    16     3     4    2
    17     3     5   am
    18     5     6    1
    19     6     7    1
    20     7     8    1
    21     8    11    1
    22    11    12    1
    23    12    13   ar
    24    13    14   ar
    25    14    15   ar
    26    15    16    1
    27    15    17   ar
    28     8     9    1
    29     9    10    1
    30    30    31   ar
    31    31    27   ar
    32    24    18   ar
    33    10     5    1
    34    17    12   ar
@<TRIPOS>MOLECULE
*****
 31 34 0 0 0
SMALL
GASTEIGER

@<TRIPOS>ATOM
      1 C         -13.2677   -3.5673   18.3611 C.2     1  UNL1        0.0044
      2 C         -13.2230   -2.4080   19.3119 C.2     1  UNL1        0.0579
      3 C         -14.2383   -1.3093   19.2031 C.2     1  UNL1        0.2492
      4 O         -15.5985   -1.4819   19.8115 O.2     1  UNL1       -0.2699
      5 N         -13.8934   -0.0378   18.4859 N.am    1  UNL1       -0.2732
      6 C         -12.5333    0.1350   17.8776 C.3     1  UNL1        0.1111
      7 C         -12.1884    1.4065   17.1604 C.3     1  UNL1        0.0942
      8 N         -13.2036    2.5052   17.0516 N.3     1  UNL1       -0.2646
      9 C         -14.5639    2.3326   17.6600 C.3     1  UNL1        0.0942
     10 C         -14.9087    1.0611   18.3772 C.3     1  UNL1        0.1111
     11 C         -12.8587    3.7767   16.3344 C.3     1  UNL1        0.1221
     12 C         -12.4999    5.0053   17.1165 C.ar    1  UNL1        0.1154
     13 C         -13.4568    6.0568   17.5949 C.ar    1  UNL1        0.1971
     14 O         -12.6694    7.0995   18.3316 O.2     1  UNL1       -0.4356
     15 C         -11.2258    6.6924   18.3085 C.ar    1  UNL1        0.2061
     16 C         -10.0869    7.4471   18.9277 C.3     1  UNL1        0.0950
     17 N         -11.1211    5.3982   17.5576 N.ar    1  UNL1       -0.2150
     18 C         -12.6029   -6.0573   18.0320 C.ar    1  UNL1        0.0048
     19 C         -11.5877   -7.1561   18.1408 C.ar    1  UNL1        0.0091
     20 C         -10.2219   -6.8637   18.6876 C.ar    1  UNL1        0.0574
     21 CL         -9.2065   -7.9625   18.7964 Cl      1  UNL1       -0.0823
     22 C          -9.8713   -5.4726   19.1255 C.ar    1  UNL1        0.0114
     23 C         -10.8865   -4.3738   19.0167 C.ar    1  UNL1        0.0006
     24 C         -12.2523   -4.6661   18.4699 C.ar    1  UNL1       -0.0018
     25 C         -13.9688   -6.3496   17.4852 C.3     1  UNL1        0.1777
     26 C         -16.7383  -10.7379   18.4621 C.3     1  UNL1        0.0776
     27 C         -16.1186   -9.3797   18.6087 C.ar    1  UNL1        0.1838
     28 N         -16.2713   -8.4635   19.7865 N.ar    1  UNL1       -0.1123
     29 N         -15.4846   -7.2168   19.5089 N.ar    1  UNL1       -0.0451
     30 N         -14.8457   -7.3626   18.1597 N.ar    1  UNL1       -0.1467
     31 N         -15.2376   -8.6994   17.6033 N.ar    1  UNL1       -0.1339
@<TRIPOS>BOND
     1    26    27    1
     2    27    28   ar
     3    28    29   ar
     4    29    30   ar
     5    30    25    1
     6    25    18    1
     7    18    19   ar
     8    19    20   ar
     9    20    21    1
    10    20    22   ar
    11    22    23   ar
    12    23    24   ar
    13    24     1    1
    14     1     2    2
    15     2     3    1
    16     3     4    2
    17     3     5   am
    18     5     6    1
    19     6     7    1
    20     7     8    1
    21     8    11    1
    22    11    12    1
    23    12    13   ar
    24    13    14   ar
    25    14    15   ar
    26    15    16    1
    27    15    17   ar
    28     8     9    1
    29     9    10    1
    30    30    31   ar
    31    31    27   ar
    32    24    18   ar
    33    10     5    1
    34    17    12   ar
@<TRIPOS>MOLECULE
*****
 31 34 0 0 0
SMALL
GASTEIGER

@<TRIPOS>ATOM
      1 C           6.4664   -5.2832   28.1350 C.2     1  UNL1        0.0044
      2 C           7.3326   -4.5220   29.0944 C.2     1  UNL1        0.0579
      3 C           6.7511   -3.9920   30.3714 C.2     1  UNL1        0.2492
      4 O           6.9824   -4.7227   31.6609 O.2     1  UNL1       -0.2699
      5 N           5.9385   -2.7312   30.3591 N.am    1  UNL1       -0.2732
      6 C           5.7072   -2.0005   29.0698 C.3     1  UNL1        0.1111
      7 C           4.8945   -0.7398   29.0575 C.3     1  UNL1        0.0942
      8 N           4.3131   -0.2098   30.3345 N.3     1  UNL1       -0.2646
      9 C           4.5443   -0.9405   31.6240 C.3     1  UNL1        0.0942
     10 C           5.3570   -2.2012   31.6363 C.3     1  UNL1        0.1111
     11 C           3.5004    1.0509   30.3222 C.3     1  UNL1        0.1221
     12 C           2.1111    1.0422   29.7568 C.ar    1  UNL1        0.1154
     13 C           1.4126    2.2048   29.1162 C.ar    1  UNL1        0.1971
     14 O           0.0461    1.7505   28.6962 O.2     1  UNL1       -0.4356
     15 C          -0.0998    0.3070   29.0773 C.ar    1  UNL1        0.2061
     16 C          -1.3096   -0.5485   28.8439 C.3     1  UNL1        0.0950
     17 N           1.1764   -0.1307   29.7328 N.ar    1  UNL1       -0.2150
     18 C           7.1877   -4.9123   25.6668 C.ar    1  UNL1        0.0048
     19 C           7.7692   -5.4422   24.3897 C.ar    1  UNL1        0.0091
     20 C           8.2108   -6.8731   24.3037 C.ar    1  UNL1        0.0574
     21 CL          8.7923   -7.4032   23.0266 Cl      1  UNL1       -0.0823
     22 C           8.0710   -7.7741   25.4948 C.ar    1  UNL1        0.0114
     23 C           7.4895   -7.2441   26.7719 C.ar    1  UNL1        0.0006
     24 C           7.0479   -5.8132   26.8579 C.ar    1  UNL1       -0.0018
     25 C           6.7461   -3.4813   25.7528 C.3     1  UNL1        0.1777
     26 C           2.9582   -0.5059   23.5895 C.3     1  UNL1        0.0776
     27 C           3.9747   -1.5881   23.8033 C.ar    1  UNL1        0.1838
     28 N           4.2861   -2.7056   22.8524 N.ar    1  UNL1       -0.1123
     29 N           5.3622   -3.5508   23.4670 N.ar    1  UNL1       -0.0451
     30 N           5.7158   -2.9557   24.7977 N.ar    1  UNL1       -0.1467
     31 N           4.8583   -1.7426   25.0055 N.ar    1  UNL1       -0.1339
@<TRIPOS>BOND
     1    26    27    1
     2    27    28   ar
     3    28    29   ar
     4    29    30   ar
     5    30    25    1
     6    25    18    1
     7    18    19   ar
     8    19    20   ar
     9    20    21    1
    10    20    22   ar
    11    22    23   ar
    12    23    24   ar
    13    24     1    1
    14     1     2    2
    15     2     3    1
    16     3     4    2
    17     3     5   am
    18     5     6    1
    19     6     7    1
    20     7     8    1
    21     8    11    1
    22    11    12    1
    23    12    13   ar
    24    13    14   ar
    25    14    15   ar
    26    15    16    1
    27    15    17   ar
    28     8     9    1
    29     9    10    1
    30    30    31   ar
    31    31    27   ar
    32    24    18   ar
    33    10     5    1
    34    17    12   ar
@<TRIPOS>MOLECULE
*****
 31 34 0 0 0
SMALL
GASTEIGER

@<TRIPOS>ATOM
      1 C           1.9283   -0.2556   20.8630 C.2     1  UNL1        0.0044
      2 C           2.0968    1.2161   20.6270 C.2     1  UNL1        0.0579
      3 C           1.1530    1.9423   19.7149 C.2     1  UNL1        0.2492
      4 O           1.3925    1.9428   18.2341 O.2     1  UNL1       -0.2699
      5 N          -0.0302    2.6680   20.2835 N.am    1  UNL1       -0.2732
      6 C          -0.2697    2.6674   21.7643 C.3     1  UNL1        0.1111
      7 C          -1.4529    3.3931   22.3329 C.3     1  UNL1        0.0942
      8 N          -2.3967    4.1193   21.4208 N.3     1  UNL1       -0.2646
      9 C          -2.1572    4.1199   19.9400 C.3     1  UNL1        0.0942
     10 C          -0.9740    3.3942   19.3714 C.3     1  UNL1        0.1111
     11 C          -3.5799    4.8450   21.9895 C.3     1  UNL1        0.1221
     12 C          -4.1166    4.4640   23.3373 C.ar    1  UNL1        0.1154
     13 C          -5.0276    3.3085   23.6291 C.ar    1  UNL1        0.1971
     14 O          -5.3106    3.3019   25.1021 O.2     1  UNL1       -0.4356
     15 C          -4.5746    4.4533   25.7207 C.ar    1  UNL1        0.2061
     16 C          -4.5762    4.8218   27.1747 C.3     1  UNL1        0.0950
     17 N          -3.8367    5.1715   24.6299 N.ar    1  UNL1       -0.2150
     18 C           3.7506   -2.0701   21.2331 C.ar    1  UNL1        0.0048
     19 C           4.6944   -2.7963   22.1451 C.ar    1  UNL1        0.0091
     20 C           4.7597   -2.4342   23.5993 C.ar    1  UNL1        0.0574
     21 CL          5.7035   -3.1603   24.5114 Cl      1  UNL1       -0.0823
     22 C           3.8812   -1.3459   24.1414 C.ar    1  UNL1        0.0114
     23 C           2.9374   -0.6197   23.2293 C.ar    1  UNL1        0.0006
     24 C           2.8721   -0.9818   21.7752 C.ar    1  UNL1       -0.0018
     25 C           3.6853   -2.4322   19.7788 C.3     1  UNL1        0.1777
     26 C           6.7295    0.6553   16.7654 C.3     1  UNL1        0.0776
     27 C           6.1590   -0.5478   17.4560 C.ar    1  UNL1        0.1838
     28 N           6.6672   -1.9544   17.3404 N.ar    1  UNL1       -0.1123
     29 N           5.8024   -2.8314   18.1965 N.ar    1  UNL1       -0.0451
     30 N           4.7597   -1.9670   18.8412 N.ar    1  UNL1       -0.1467
     31 N           4.9802   -0.5556   18.3835 N.ar    1  UNL1       -0.1339
@<TRIPOS>BOND
     1    26    27    1
     2    27    28   ar
     3    28    29   ar
     4    29    30   ar
     5    30    25    1
     6    25    18    1
     7    18    19   ar
     8    19    20   ar
     9    20    21    1
    10    20    22   ar
    11    22    23   ar
    12    23    24   ar
    13    24     1    1
    14     1     2    2
    15     2     3    1
    16     3     4    2
    17     3     5   am
    18     5     6    1
    19     6     7    1
    20     7     8    1
    21     8    11    1
    22    11    12    1
    23    12    13   ar
    24    13    14   ar
    25    14    15   ar
    26    15    16    1
    27    15    17   ar
    28     8     9    1
    29     9    10    1
    30    30    31   ar
    31    31    27   ar
    32    24    18   ar
    33    10     5    1
    34    17    12   ar
@<TRIPOS>MOLECULE
*****
 31 34 0 0 0
SMALL
GASTEIGER

@<TRIPOS>ATOM
      1 C           3.8153   -2.5207   20.0540 C.2     1  UNL1        0.0044
      2 C           4.9202   -2.3405   21.0524 C.2     1  UNL1        0.0579
      3 C           5.7991   -3.5004   21.4160 C.2     1  UNL1        0.2492
      4 O           5.9989   -4.6241   20.4425 O.2     1  UNL1       -0.2699
      5 N           6.4782   -3.5366   22.7529 N.am    1  UNL1       -0.2732
      6 C           6.2784   -2.4130   23.7263 C.3     1  UNL1        0.1111
      7 C           6.9575   -2.4493   25.0633 C.3     1  UNL1        0.0942
      8 N           7.8363   -3.6092   25.4269 N.3     1  UNL1       -0.2646
      9 C           8.0361   -4.7329   24.4535 C.3     1  UNL1        0.0942
     10 C           7.3570   -4.6966   23.1165 C.3     1  UNL1        0.1111
     11 C           8.5154   -3.6454   26.7639 C.3     1  UNL1        0.1221
     12 C           7.7837   -4.1721   27.9627 C.ar    1  UNL1        0.1154
     13 C           6.7165   -5.2261   27.9514 C.ar    1  UNL1        0.1971
     14 O           6.2640   -5.4428   29.3650 O.2     1  UNL1       -0.4356
     15 C           7.0516   -4.5226   30.2500 C.ar    1  UNL1        0.2061
     16 C           6.9225   -4.4079   31.7400 C.3     1  UNL1        0.0950
     17 N           7.9908   -3.7374   29.3833 N.ar    1  UNL1       -0.2150
     18 C           3.1147   -0.6693   18.3712 C.ar    1  UNL1        0.0048
     19 C           2.2359    0.4906   18.0076 C.ar    1  UNL1        0.0091
     20 C           1.1789    0.9591   18.9632 C.ar    1  UNL1        0.0574
     21 CL          0.3000    2.1191   18.5996 Cl      1  UNL1       -0.0823
     22 C           1.0006    0.2677   20.2823 C.ar    1  UNL1        0.0114
     23 C           1.8794   -0.8922   20.6460 C.ar    1  UNL1        0.0006
     24 C           2.9365   -1.3607   19.6904 C.ar    1  UNL1       -0.0018
     25 C           4.1718   -1.1379   17.4156 C.3     1  UNL1        0.1777
     26 C           8.8372    0.2410   19.4685 C.3     1  UNL1        0.0776
     27 C           7.7527   -0.5420   18.7896 C.ar    1  UNL1        0.1838
     28 N           7.8848   -1.9261   18.2269 N.ar    1  UNL1       -0.1123
     29 N           6.5594   -2.3178   17.6437 N.ar    1  UNL1       -0.0451
     30 N           5.6082   -1.1758   17.8460 N.ar    1  UNL1       -0.1467
     31 N           6.3457   -0.0782   18.5542 N.ar    1  UNL1       -0.1339
@<TRIPOS>BOND
     1    26    27    1
     2    27    28   ar
     3    28    29   ar
     4    29    30   ar
     5    30    25    1
     6    25    18    1
     7    18    19   ar
     8    19    20   ar
     9    20    21    1
    10    20    22   ar
    11    22    23   ar
    12    23    24   ar
    13    24     1    1
    14     1     2    2
    15     2     3    1
    16     3     4    2
    17     3     5   am
    18     5     6    1
    19     6     7    1
    20     7     8    1
    21     8    11    1
    22    11    12    1
    23    12    13   ar
    24    13    14   ar
    25    14    15   ar
    26    15    16    1
    27    15    17   ar
    28     8     9    1
    29     9    10    1
    30    30    31   ar
    31    31    27   ar
    32    24    18   ar
    33    10     5    1
    34    17    12   ar
@<TRIPOS>MOLECULE
*****
 31 34 0 0 0
SMALL
GASTEIGER

@<TRIPOS>ATOM
      1 C           3.7744   -0.9837   23.3251 C.2     1  UNL1        0.0044
      2 C           3.9331   -1.4877   24.7289 C.2     1  UNL1        0.0579
      3 C           3.7258   -0.5579   25.8875 C.2     1  UNL1        0.2492
      4 O           2.8422    0.6447   25.7353 O.2     1  UNL1       -0.2699
      5 N           4.4020   -0.8306   27.1984 N.am    1  UNL1       -0.2732
      6 C           5.2856   -2.0331   27.3506 C.3     1  UNL1        0.1111
      7 C           5.9618   -2.3058   28.6615 C.3     1  UNL1        0.0942
      8 N           5.7545   -1.3759   29.8201 N.3     1  UNL1       -0.2646
      9 C           4.8709   -0.1734   29.6679 C.3     1  UNL1        0.0942
     10 C           4.1946    0.0993   28.3570 C.3     1  UNL1        0.1111
     11 C           6.4307   -1.6486   31.1310 C.3     1  UNL1        0.1221
     12 C           5.6433   -1.5950   32.4065 C.ar    1  UNL1        0.1154
     13 C           4.4319   -2.4183   32.7302 C.ar    1  UNL1        0.1971
     14 O           3.9690   -2.0408   34.1061 O.2     1  UNL1       -0.4356
     15 C           4.8943   -0.9841   34.6328 C.ar    1  UNL1        0.2061
     16 C           4.8011   -0.3196   35.9744 C.3     1  UNL1        0.0950
     17 N           5.9290   -0.7086   33.5824 N.ar    1  UNL1       -0.2150
     18 C           3.8551   -1.4019   20.7621 C.ar    1  UNL1        0.0048
     19 C           4.0624   -2.3317   19.6035 C.ar    1  UNL1        0.0091
     20 C           4.3964   -3.7732   19.8492 C.ar    1  UNL1        0.0574
     21 CL          4.6038   -4.7031   18.6906 Cl      1  UNL1       -0.0823
     22 C           4.5231   -4.2849   21.2535 C.ar    1  UNL1        0.0114
     23 C           4.3158   -3.3551   22.4121 C.ar    1  UNL1        0.0006
     24 C           3.9818   -1.9136   22.1664 C.ar    1  UNL1       -0.0018
     25 C           3.5210    0.0397   20.5164 C.3     1  UNL1        0.1777
     26 C          -0.7910    3.0799   20.3060 C.3     1  UNL1        0.0776
     27 C           0.1065    1.8813   20.3946 C.ar    1  UNL1        0.1838
     28 N          -0.3383    0.4535   20.5109 N.ar    1  UNL1       -0.1123
     29 N           0.8867   -0.4101   20.5707 N.ar    1  UNL1       -0.0451
     30 N           2.0885    0.4839   20.4914 N.ar    1  UNL1       -0.1467
     31 N           1.6063    1.9001   20.3825 N.ar    1  UNL1       -0.1339
@<TRIPOS>BOND
     1    26    27    1
     2    27    28   ar
     3    28    29   ar
     4    29    30   ar
     5    30    25    1
     6    25    18    1
     7    18    19   ar
     8    19    20   ar
     9    20    21    1
    10    20    22   ar
    11    22    23   ar
    12    23    24   ar
    13    24     1    1
    14     1     2    2
    15     2     3    1
    16     3     4    2
    17     3     5   am
    18     5     6    1
    19     6     7    1
    20     7     8    1
    21     8    11    1
    22    11    12    1
    23    12    13   ar
    24    13    14   ar
    25    14    15   ar
    26    15    16    1
    27    15    17   ar
    28     8     9    1
    29     9    10    1
    30    30    31   ar
    31    31    27   ar
    32    24    18   ar
    33    10     5    1
    34    17    12   ar
@<TRIPOS>MOLECULE
*****
 31 34 0 0 0
SMALL
GASTEIGER

@<TRIPOS>ATOM
      1 C         -17.0422    0.8744   19.7075 C.2     1  UNL1        0.0044
      2 C         -16.5350   -0.4165   20.2789 C.2     1  UNL1        0.0579
      3 C         -16.9062   -1.7191   19.6345 C.2     1  UNL1        0.2492
      4 O         -18.2827   -1.9114   19.0703 O.2     1  UNL1       -0.2699
      5 N         -15.9009   -2.8295   19.5542 N.am    1  UNL1       -0.2732
      6 C         -14.5244   -2.6372   20.1184 C.3     1  UNL1        0.1111
      7 C         -13.5191   -3.7476   20.0381 C.3     1  UNL1        0.0942
      8 N         -13.8903   -5.0502   19.3937 N.3     1  UNL1       -0.2646
      9 C         -15.2668   -5.2425   18.8295 C.3     1  UNL1        0.0942
     10 C         -16.2721   -4.1321   18.9098 C.3     1  UNL1        0.1111
     11 C         -12.8850   -6.1606   19.3135 C.3     1  UNL1        0.1221
     12 C         -11.5569   -5.9240   18.6576 C.ar    1  UNL1        0.1154
     13 C         -10.3361   -6.7833   18.8031 C.ar    1  UNL1        0.1971
     14 O          -9.2412   -6.1769   17.9765 O.2     1  UNL1       -0.4356
     15 C          -9.7853   -4.9427   17.3201 C.ar    1  UNL1        0.2061
     16 C          -9.0306   -4.0258   16.4037 C.3     1  UNL1        0.0950
     17 N         -11.2165   -4.7864   17.7411 N.ar    1  UNL1       -0.2150
     18 C         -15.8719    3.1909   19.5881 C.ar    1  UNL1        0.0048
     19 C         -15.5007    4.4935   20.2325 C.ar    1  UNL1        0.0091
     20 C         -15.9286    4.7823   21.6409 C.ar    1  UNL1        0.0574
     21 CL        -15.5574    6.0850   22.2854 Cl      1  UNL1       -0.0823
     22 C         -16.7277    3.7685   22.4048 C.ar    1  UNL1        0.0114
     23 C         -17.0989    2.4659   21.7604 C.ar    1  UNL1        0.0006
     24 C         -16.6710    2.1771   20.3520 C.ar    1  UNL1       -0.0018
     25 C         -15.4440    2.9020   18.1797 C.3     1  UNL1        0.1777
     26 C         -11.6531   -0.7644   17.9201 C.3     1  UNL1        0.0776
     27 C         -12.3904    0.5363   17.7995 C.ar    1  UNL1        0.1838
     28 N         -11.8403    1.8126   17.2353 N.ar    1  UNL1       -0.1123
     29 N         -12.9172    2.8541   17.3090 N.ar    1  UNL1       -0.0451
     30 N         -14.1329    2.2216   17.9188 N.ar    1  UNL1       -0.1467
     31 N         -13.8073    0.7891   18.2220 N.ar    1  UNL1       -0.1339
@<TRIPOS>BOND
     1    26    27    1
     2    27    28   ar
     3    28    29   ar
     4    29    30   ar
     5    30    25    1
     6    25    18    1
     7    18    19   ar
     8    19    20   ar
     9    20    21    1
    10    20    22   ar
    11    22    23   ar
    12    23    24   ar
    13    24     1    1
    14     1     2    2
    15     2     3    1
    16     3     4    2
    17     3     5   am
    18     5     6    1
    19     6     7    1
    20     7     8    1
    21     8    11    1
    22    11    12    1
    23    12    13   ar
    24    13    14   ar
    25    14    15   ar
    26    15    16    1
    27    15    17   ar
    28     8     9    1
    29     9    10    1
    30    30    31   ar
    31    31    27   ar
    32    24    18   ar
    33    10     5    1
    34    17    12   ar
@<TRIPOS>MOLECULE
*****
 31 34 0 0 0
SMALL
GASTEIGER

@<TRIPOS>ATOM
      1 C           4.9721    2.2321   35.0615 C.2     1  UNL1        0.0044
      2 C           3.6740    1.4966   34.9069 C.2     1  UNL1        0.0579
      3 C           2.5568    2.1058   34.1128 C.2     1  UNL1        0.2492
      4 O           1.7929    3.2724   34.6658 O.2     1  UNL1       -0.2699
      5 N           2.2033    1.5486   32.7658 N.am    1  UNL1       -0.2732
      6 C           2.9672    0.3822   32.2127 C.3     1  UNL1        0.1111
      7 C           2.6137   -0.1751   30.8657 C.3     1  UNL1        0.0942
      8 N           1.4965    0.4342   30.0716 N.3     1  UNL1       -0.2646
      9 C           0.7326    1.6007   30.6246 C.3     1  UNL1        0.0942
     10 C           1.0860    2.1580   31.9717 C.3     1  UNL1        0.1111
     11 C           1.1431   -0.1230   28.7246 C.3     1  UNL1        0.1221
     12 C           0.7737    0.8025   27.6035 C.ar    1  UNL1        0.1154
     13 C           1.7157    1.3756   26.5865 C.ar    1  UNL1        0.1971
     14 O           0.9217    2.2448   25.6570 O.2     1  UNL1       -0.4356
     15 C          -0.5112    2.2088   26.0995 C.ar    1  UNL1        0.2061
     16 C          -1.6522    2.9365   25.4526 C.3     1  UNL1        0.0950
     17 N          -0.6026    1.3175   27.3025 N.ar    1  UNL1       -0.2150
     18 C           6.2344    1.9428   37.3139 C.ar    1  UNL1        0.0048
     19 C           7.3516    1.3336   38.1080 C.ar    1  UNL1        0.0091
     20 C           8.3238    0.4042   37.4438 C.ar    1  UNL1        0.0574
     21 CL          9.4410   -0.2051   38.2379 Cl      1  UNL1       -0.0823
     22 C           8.1788    0.0842   35.9856 C.ar    1  UNL1        0.0114
     23 C           7.0616    0.6934   35.1915 C.ar    1  UNL1        0.0006
     24 C           6.0894    1.6228   35.8556 C.ar    1  UNL1       -0.0018
     25 C           5.2622    2.8722   37.9781 C.3     1  UNL1        0.1777
     26 C           1.2050   -0.0348   39.7013 C.3     1  UNL1        0.0776
     27 C           2.0050    1.0702   39.0777 C.ar    1  UNL1        0.1838
     28 N           1.4496    2.3091   38.4398 N.ar    1  UNL1       -0.1123
     29 N           2.6022    3.1349   37.9503 N.ar    1  UNL1       -0.0451
     30 N           3.8699    2.4065   38.2856 N.ar    1  UNL1       -0.1467
     31 N           3.5007    1.1304   38.9823 N.ar    1  UNL1       -0.1339
@<TRIPOS>BOND
     1    26    27    1
     2    27    28   ar
     3    28    29   ar
     4    29    30   ar
     5    30    25    1
     6    25    18    1
     7    18    19   ar
     8    19    20   ar
     9    20    21    1
    10    20    22   ar
    11    22    23   ar
    12    23    24   ar
    13    24     1    1
    14     1     2    2
    15     2     3    1
    16     3     4    2
    17     3     5   am
    18     5     6    1
    19     6     7    1
    20     7     8    1
    21     8    11    1
    22    11    12    1
    23    12    13   ar
    24    13    14   ar
    25    14    15   ar
    26    15    16    1
    27    15    17   ar
    28     8     9    1
    29     9    10    1
    30    30    31   ar
    31    31    27   ar
    32    24    18   ar
    33    10     5    1
    34    17    12   ar
@<TRIPOS>MOLECULE
*****
 31 34 0 0 0
SMALL
GASTEIGER

@<TRIPOS>ATOM
      1 C           6.3187   -2.5595   24.2262 C.2     1  UNL1        0.0044
      2 C           4.8237   -2.5554   24.1043 C.2     1  UNL1        0.0579
      3 C           4.0624   -1.2718   24.2555 C.2     1  UNL1        0.2492
      4 O           4.1076   -0.5214   25.5535 O.2     1  UNL1       -0.2699
      5 N           3.2559   -0.7386   23.1086 N.am    1  UNL1       -0.2732
      6 C           3.2107   -1.4890   21.8106 C.3     1  UNL1        0.1111
      7 C           2.4042   -0.9558   20.6637 C.3     1  UNL1        0.0942
      8 N           1.6430    0.3278   20.8149 N.3     1  UNL1       -0.2646
      9 C           1.6882    1.0782   22.1129 C.3     1  UNL1        0.0942
     10 C           2.4947    0.5450   23.2598 C.3     1  UNL1        0.1111
     11 C           0.8365    0.8610   19.6680 C.3     1  UNL1        0.1221
     12 C          -0.0050    2.0893   19.8499 C.ar    1  UNL1        0.1154
     13 C           0.2600    3.4369   19.2465 C.ar    1  UNL1        0.1971
     14 O          -0.8304    4.3662   19.6908 O.2     1  UNL1       -0.4356
     15 C          -1.7693    3.5930   20.5687 C.ar    1  UNL1        0.2061
     16 C          -3.0019    4.1323   21.2319 C.3     1  UNL1        0.0950
     17 N          -1.2591    2.1858   20.6670 N.ar    1  UNL1       -0.2150
     18 C           7.7687   -4.1587   22.7805 C.ar    1  UNL1        0.0048
     19 C           8.5300   -5.4423   22.6293 C.ar    1  UNL1        0.0091
     20 C           8.6024   -6.4104   23.7727 C.ar    1  UNL1        0.0574
     21 CL          9.3637   -7.6940   23.6215 Cl      1  UNL1       -0.0823
     22 C           7.9136   -6.0949   25.0673 C.ar    1  UNL1        0.0114
     23 C           7.1524   -4.8113   25.2185 C.ar    1  UNL1        0.0006
     24 C           7.0800   -3.8432   24.0751 C.ar    1  UNL1       -0.0018
     25 C           7.6963   -3.1905   21.6370 C.3     1  UNL1        0.1777
     26 C           3.2905   -4.7067   19.1527 C.3     1  UNL1        0.0776
     27 C           4.5867   -4.0204   19.4673 C.ar    1  UNL1        0.1838
     28 N           5.2992   -3.0360   18.5880 N.ar    1  UNL1       -0.1123
     29 N           6.5508   -2.6053   19.2938 N.ar    1  UNL1       -0.0451
     30 N           6.6118   -3.3235   20.6093 N.ar    1  UNL1       -0.1467
     31 N           5.3979   -4.1981   20.7165 N.ar    1  UNL1       -0.1339
@<TRIPOS>BOND
     1    26    27    1
     2    27    28   ar
     3    28    29   ar
     4    29    30   ar
     5    30    25    1
     6    25    18    1
     7    18    19   ar
     8    19    20   ar
     9    20    21    1
    10    20    22   ar
    11    22    23   ar
    12    23    24   ar
    13    24     1    1
    14     1     2    2
    15     2     3    1
    16     3     4    2
    17     3     5   am
    18     5     6    1
    19     6     7    1
    20     7     8    1
    21     8    11    1
    22    11    12    1
    23    12    13   ar
    24    13    14   ar
    25    14    15   ar
    26    15    16    1
    27    15    17   ar
    28     8     9    1
    29     9    10    1
    30    30    31   ar
    31    31    27   ar
    32    24    18   ar
    33    10     5    1
    34    17    12   ar
