@<TRIPOS>MOLECULE
*****
 26 28 0 0 0
SMALL
GASTEIGER

@<TRIPOS>ATOM
      1 C         -12.0967  -18.2102   22.4427 C.ar    1  UNL1        0.1232
      2 C         -10.7469  -18.2904   23.0919 C.ar    1  UNL1        0.0360
      3 C          -9.7544  -18.7083   22.0477 C.ar    1  UNL1        0.0372
      4 C          -8.2752  -18.9497   22.1085 C.ar    1  UNL1        0.0032
      5 C          -7.5325  -19.3692   20.8747 C.ar    1  UNL1        0.0025
      6 C          -8.2690  -19.5472   19.5801 C.ar    1  UNL1        0.0032
      7 C          -9.7481  -19.3058   19.5193 C.ar    1  UNL1        0.0375
      8 C         -10.4908  -18.8864   20.7532 C.ar    1  UNL1        0.1448
      9 O         -11.9385  -18.5785   20.9973 O.2     1  UNL1       -0.4578
     10 C          -6.0533  -19.6106   20.9354 C.ar    1  UNL1        0.0305
     11 C          -5.1831  -18.7270   21.7792 C.ar    1  UNL1        0.0394
     12 C          -3.7040  -18.9684   21.8399 C.ar    1  UNL1        0.1469
     13 C          -3.0948  -20.0935   21.0568 C.ar    1  UNL1        0.0395
     14 C          -3.9650  -20.9771   20.2130 C.ar    1  UNL1        0.0328
     15 C          -5.4442  -20.7357   20.1523 C.ar    1  UNL1        0.1403
     16 F          -6.3143  -21.6193   19.3084 F       1  UNL1       -0.2042
     17 O          -2.8339  -18.0847   22.6838 O.3     1  UNL1       -0.4045
     18 C          -2.2912  -16.8058   22.1182 C.3     1  UNL1        0.5753
     19 F          -1.7485  -15.5269   21.5525 F       1  UNL1       -0.1328
     20 F          -3.3449  -16.0330   22.8547 F       1  UNL1       -0.1328
     21 F          -1.2375  -17.5787   21.3817 F       1  UNL1       -0.1328
     22 C         -13.3796  -17.8286   23.1200 C.3     1  UNL1        0.0704
     23 C         -13.5089  -17.9577   24.6088 C.3     1  UNL1        0.0497
     24 O         -15.9096  -18.9107   24.3294 O.co2   1  UNL1       -0.5492
     25 C         -14.7357  -18.5829   25.2037 C.2     1  UNL1        0.0508
     26 O         -14.7886  -18.8804   26.6731 O.co2   1  UNL1       -0.5492
@<TRIPOS>UNITY_ATOM_ATTR
24 1
charge -1
@<TRIPOS>BOND
     1    24    25   ar
     2    25    26   ar
     3    25    23    1
     4    23    22    1
     5    22     1    1
     6     1     2   ar
     7     2     3   ar
     8     3     4   ar
     9     4     5   ar
    10     5    10    1
    11    10    11   ar
    12    11    12   ar
    13    12    17    1
    14    17    18    1
    15    18    19    1
    16    18    20    1
    17    18    21    1
    18    12    13   ar
    19    13    14   ar
    20    14    15   ar
    21    15    16    1
    22     5     6   ar
    23     6     7   ar
    24     7     8   ar
    25     8     9   ar
    26     9     1   ar
    27     8     3   ar
    28    15    10   ar
@<TRIPOS>MOLECULE
*****
 26 28 0 0 0
SMALL
GASTEIGER

@<TRIPOS>ATOM
      1 C         -10.6280  -16.7703   23.0279 C.ar    1  UNL1        0.1232
      2 C          -9.3675  -16.4735   22.2709 C.ar    1  UNL1        0.0360
      3 C          -8.5234  -17.7134   22.2718 C.ar    1  UNL1        0.0372
      4 C          -7.1774  -18.0117   21.6807 C.ar    1  UNL1        0.0032
      5 C          -6.5703  -19.3732   21.8472 C.ar    1  UNL1        0.0025
      6 C          -7.3092  -20.4364   22.6047 C.ar    1  UNL1        0.0032
      7 C          -8.6551  -20.1380   23.1958 C.ar    1  UNL1        0.0375
      8 C          -9.2622  -18.7766   23.0293 C.ar    1  UNL1        0.1448
      9 O         -10.5629  -18.1937   23.4966 O.2     1  UNL1       -0.4578
     10 C          -5.2243  -19.6716   21.2561 C.ar    1  UNL1        0.0305
     11 C          -4.0260  -18.8749   21.6794 C.ar    1  UNL1        0.0394
     12 C          -2.6800  -19.1732   21.0884 C.ar    1  UNL1        0.1469
     13 C          -2.5324  -20.2683   20.0739 C.ar    1  UNL1        0.0395
     14 C          -3.7307  -21.0650   19.6506 C.ar    1  UNL1        0.0328
     15 C          -5.0767  -20.7667   20.2417 C.ar    1  UNL1        0.1403
     16 F          -6.2751  -21.5634   19.8183 F       1  UNL1       -0.2042
     17 O          -1.4817  -18.3765   21.5117 O.3     1  UNL1       -0.4045
     18 C          -1.5818  -16.8861   21.6474 C.3     1  UNL1        0.5753
     19 F          -1.6818  -15.3955   21.7831 F       1  UNL1       -0.1328
     20 F          -2.1342  -17.0493   23.0324 F       1  UNL1       -0.1328
     21 F          -1.0293  -16.7228   20.2625 F       1  UNL1       -0.1328
     22 C         -11.7557  -15.8120   23.2730 C.3     1  UNL1        0.0704
     23 C         -12.8732  -15.6987   22.2790 C.3     1  UNL1        0.0497
     24 O         -12.9466  -17.9625   21.0062 O.co2   1  UNL1       -0.5492
     25 C         -12.8139  -16.4684   20.9929 C.2     1  UNL1        0.0508
     26 O         -12.6220  -15.7440   19.6935 O.co2   1  UNL1       -0.5492
@<TRIPOS>UNITY_ATOM_ATTR
24 1
charge -1
@<TRIPOS>BOND
     1    24    25   ar
     2    25    26   ar
     3    25    23    1
     4    23    22    1
     5    22     1    1
     6     1     2   ar
     7     2     3   ar
     8     3     4   ar
     9     4     5   ar
    10     5    10    1
    11    10    11   ar
    12    11    12   ar
    13    12    17    1
    14    17    18    1
    15    18    19    1
    16    18    20    1
    17    18    21    1
    18    12    13   ar
    19    13    14   ar
    20    14    15   ar
    21    15    16    1
    22     5     6   ar
    23     6     7   ar
    24     7     8   ar
    25     8     9   ar
    26     9     1   ar
    27     8     3   ar
    28    15    10   ar
@<TRIPOS>MOLECULE
*****
 26 28 0 0 0
SMALL
GASTEIGER

@<TRIPOS>ATOM
      1 C           0.4113    1.4720   26.0950 C.ar    1  UNL1        0.1232
      2 C           0.1333    1.4019   24.6226 C.ar    1  UNL1        0.0360
      3 C           1.3392    0.8154   23.9505 C.ar    1  UNL1        0.0372
      4 C           1.6376    0.5098   22.5127 C.ar    1  UNL1        0.0032
      5 C           2.9594   -0.0883   22.1317 C.ar    1  UNL1        0.0025
      6 C           3.9828   -0.3807   23.1887 C.ar    1  UNL1        0.0032
      7 C           3.6844   -0.0751   24.6266 C.ar    1  UNL1        0.0375
      8 C           2.3626    0.5229   25.0075 C.ar    1  UNL1        0.1448
      9 O           1.7891    0.9288   26.3328 O.2     1  UNL1       -0.4578
     10 C           3.2579   -0.3939   20.6938 C.ar    1  UNL1        0.0305
     11 C           3.5460   -1.8039   20.2710 C.ar    1  UNL1        0.0394
     12 C           3.8445   -2.1096   18.8331 C.ar    1  UNL1        0.1469
     13 C           3.8548   -1.0052   17.8180 C.ar    1  UNL1        0.0395
     14 C           3.5666    0.4048   18.2409 C.ar    1  UNL1        0.0328
     15 C           3.2681    0.7104   19.6788 C.ar    1  UNL1        0.1403
     16 F           2.9799    2.1205   20.1017 F       1  UNL1       -0.2042
     17 O           4.1327   -3.5196   18.4103 O.3     1  UNL1       -0.4045
     18 C           3.7437   -4.6635   19.2991 C.3     1  UNL1        0.5753
     19 F           3.3547   -5.8075   20.1880 F       1  UNL1       -0.1328
     20 F           5.1380   -4.7094   19.8502 F       1  UNL1       -0.1328
     21 F           2.3494   -4.6176   18.7480 F       1  UNL1       -0.1328
     22 C          -0.5241    1.9937   27.1451 C.3     1  UNL1        0.0704
     23 C          -0.1923    1.8213   28.5977 C.3     1  UNL1        0.0497
     24 O           0.8467   -0.3562   29.5615 O.co2   1  UNL1       -0.5492
     25 C          -0.3584    0.4813   29.2510 C.2     1  UNL1        0.0508
     26 O          -1.7295   -0.0212   29.5939 O.co2   1  UNL1       -0.5492
@<TRIPOS>UNITY_ATOM_ATTR
24 1
charge -1
@<TRIPOS>BOND
     1    24    25   ar
     2    25    26   ar
     3    25    23    1
     4    23    22    1
     5    22     1    1
     6     1     2   ar
     7     2     3   ar
     8     3     4   ar
     9     4     5   ar
    10     5    10    1
    11    10    11   ar
    12    11    12   ar
    13    12    17    1
    14    17    18    1
    15    18    19    1
    16    18    20    1
    17    18    21    1
    18    12    13   ar
    19    13    14   ar
    20    14    15   ar
    21    15    16    1
    22     5     6   ar
    23     6     7   ar
    24     7     8   ar
    25     8     9   ar
    26     9     1   ar
    27     8     3   ar
    28    15    10   ar
@<TRIPOS>MOLECULE
*****
 26 28 0 0 0
SMALL
GASTEIGER

@<TRIPOS>ATOM
      1 C           1.3957    1.2535   25.9668 C.ar    1  UNL1        0.1232
      2 C           2.4775    0.5608   25.1924 C.ar    1  UNL1        0.0360
      3 C           2.1001    0.5902   23.7409 C.ar    1  UNL1        0.0372
      4 C           2.7841    0.0616   22.5151 C.ar    1  UNL1        0.0032
      5 C           2.1529    0.2437   21.1667 C.ar    1  UNL1        0.0025
      6 C           0.8377    0.9546   21.0440 C.ar    1  UNL1        0.0032
      7 C           0.1538    1.4833   22.2698 C.ar    1  UNL1        0.0375
      8 C           0.7850    1.3011   23.6183 C.ar    1  UNL1        0.1448
      9 O           0.3496    1.7110   24.9939 O.2     1  UNL1       -0.4578
     10 C           2.8369   -0.2850   19.9408 C.ar    1  UNL1        0.0305
     11 C           3.2863   -1.7152   19.8906 C.ar    1  UNL1        0.0394
     12 C           3.9702   -2.2439   18.6648 C.ar    1  UNL1        0.1469
     13 C           4.2047   -1.3424   17.4890 C.ar    1  UNL1        0.0395
     14 C           3.7553    0.0879   17.5392 C.ar    1  UNL1        0.0328
     15 C           3.0714    0.6166   18.7651 C.ar    1  UNL1        0.1403
     16 F           2.6220    2.0468   18.8152 F       1  UNL1       -0.2042
     17 O           4.4196   -3.6741   18.6146 O.3     1  UNL1       -0.4045
     18 C           3.8063   -4.6857   19.5368 C.3     1  UNL1        0.5753
     19 F           3.1930   -5.6974   20.4590 F       1  UNL1       -0.1328
     20 F           2.5793   -4.7273   18.6751 F       1  UNL1       -0.1328
     21 F           5.0333   -4.6441   20.3985 F       1  UNL1       -0.1328
     22 C           1.3652    1.4536   27.4531 C.3     1  UNL1        0.0704
     23 C           0.0830    1.2671   28.2088 C.3     1  UNL1        0.0497
     24 O          -1.3996   -0.4682   29.4499 O.co2   1  UNL1       -0.5492
     25 C          -0.0533    0.1388   29.1878 C.2     1  UNL1        0.0508
     26 O           1.1569   -0.3825   29.9046 O.co2   1  UNL1       -0.5492
@<TRIPOS>UNITY_ATOM_ATTR
24 1
charge -1
@<TRIPOS>BOND
     1    24    25   ar
     2    25    26   ar
     3    25    23    1
     4    23    22    1
     5    22     1    1
     6     1     2   ar
     7     2     3   ar
     8     3     4   ar
     9     4     5   ar
    10     5    10    1
    11    10    11   ar
    12    11    12   ar
    13    12    17    1
    14    17    18    1
    15    18    19    1
    16    18    20    1
    17    18    21    1
    18    12    13   ar
    19    13    14   ar
    20    14    15   ar
    21    15    16    1
    22     5     6   ar
    23     6     7   ar
    24     7     8   ar
    25     8     9   ar
    26     9     1   ar
    27     8     3   ar
    28    15    10   ar
@<TRIPOS>MOLECULE
*****
 26 28 0 0 0
SMALL
GASTEIGER

@<TRIPOS>ATOM
      1 C           8.0328   -5.1565   26.4151 C.ar    1  UNL1        0.1232
      2 C           7.4736   -5.2457   25.0261 C.ar    1  UNL1        0.0360
      3 C           6.5520   -4.0800   24.8216 C.ar    1  UNL1        0.0372
      4 C           5.7210   -3.6512   23.6489 C.ar    1  UNL1        0.0032
      5 C           4.8795   -2.4127   23.7388 C.ar    1  UNL1        0.0025
      6 C           4.8691   -1.6031   25.0015 C.ar    1  UNL1        0.0032
      7 C           5.7001   -2.0319   26.1742 C.ar    1  UNL1        0.0375
      8 C           6.5416   -3.2704   26.0843 C.ar    1  UNL1        0.1448
      9 O           7.4567   -3.9357   27.0691 O.2     1  UNL1       -0.4578
     10 C           4.0484   -1.9839   22.5659 C.ar    1  UNL1        0.0305
     11 C           4.2726   -2.6070   21.2200 C.ar    1  UNL1        0.0394
     12 C           3.4416   -2.1782   20.0472 C.ar    1  UNL1        0.1469
     13 C           2.3863   -1.1262   20.2203 C.ar    1  UNL1        0.0395
     14 C           2.1622   -0.5031   21.5662 C.ar    1  UNL1        0.0328
     15 C           2.9933   -0.9319   22.7391 C.ar    1  UNL1        0.1403
     16 F           2.7691   -0.3088   24.0850 F       1  UNL1       -0.2042
     17 O           3.6657   -2.8013   18.7013 O.3     1  UNL1       -0.4045
     18 C           4.2216   -4.1908   18.6014 C.3     1  UNL1        0.5753
     19 F           4.7775   -5.5805   18.5014 F       1  UNL1       -0.1328
     20 F           5.5341   -3.6324   18.1373 F       1  UNL1       -0.1328
     21 F           2.9091   -4.7493   19.0654 F       1  UNL1       -0.1328
     22 C           8.9984   -6.1191   27.0403 C.3     1  UNL1        0.0704
     23 C           8.4911   -7.2364   27.9031 C.3     1  UNL1        0.0497
     24 O           8.6107   -9.8238   27.7007 O.co2   1  UNL1       -0.5492
     25 C           8.0177   -8.5135   27.2748 C.2     1  UNL1        0.0508
     26 O           6.9510   -8.4803   26.2206 O.co2   1  UNL1       -0.5492
@<TRIPOS>UNITY_ATOM_ATTR
24 1
charge -1
@<TRIPOS>BOND
     1    24    25   ar
     2    25    26   ar
     3    25    23    1
     4    23    22    1
     5    22     1    1
     6     1     2   ar
     7     2     3   ar
     8     3     4   ar
     9     4     5   ar
    10     5    10    1
    11    10    11   ar
    12    11    12   ar
    13    12    17    1
    14    17    18    1
    15    18    19    1
    16    18    20    1
    17    18    21    1
    18    12    13   ar
    19    13    14   ar
    20    14    15   ar
    21    15    16    1
    22     5     6   ar
    23     6     7   ar
    24     7     8   ar
    25     8     9   ar
    26     9     1   ar
    27     8     3   ar
    28    15    10   ar
@<TRIPOS>MOLECULE
*****
 26 28 0 0 0
SMALL
GASTEIGER

@<TRIPOS>ATOM
      1 C           3.8052   -1.9139   20.7524 C.ar    1  UNL1        0.1232
      2 C           3.7064   -1.4519   22.1760 C.ar    1  UNL1        0.0360
      3 C           2.5755   -0.4707   22.2676 C.ar    1  UNL1        0.0372
      4 C           2.0147    0.3099   23.4191 C.ar    1  UNL1        0.0032
      5 C           0.8538    1.2349   23.2036 C.ar    1  UNL1        0.0025
      6 C           0.2536    1.3793   21.8365 C.ar    1  UNL1        0.0032
      7 C           0.8144    0.5987   20.6850 C.ar    1  UNL1        0.0375
      8 C           1.9753   -0.3263   20.9005 C.ar    1  UNL1        0.1448
      9 O           2.7353   -1.2183   19.9641 O.2     1  UNL1       -0.4578
     10 C           0.2929    2.0156   24.3552 C.ar    1  UNL1        0.0305
     11 C          -0.2257    1.2979   25.5660 C.ar    1  UNL1        0.0394
     12 C          -0.7866    2.0785   26.7175 C.ar    1  UNL1        0.1469
     13 C          -0.8288    3.5768   26.6583 C.ar    1  UNL1        0.0395
     14 C          -0.3102    4.2944   25.4475 C.ar    1  UNL1        0.0328
     15 C           0.2507    3.5138   24.2959 C.ar    1  UNL1        0.1403
     16 F           0.7693    4.2314   23.0851 F       1  UNL1       -0.2042
     17 O          -1.3052    1.3609   27.9283 O.3     1  UNL1       -0.4045
     18 C          -0.4333    0.3734   28.6457 C.3     1  UNL1        0.5753
     19 F           0.4386   -0.6142   29.3630 F       1  UNL1       -0.1328
     20 F           0.5984    1.4407   28.8610 F       1  UNL1       -0.1328
     21 F          -1.4650   -0.6939   28.4304 F       1  UNL1       -0.1328
     22 C           4.7993   -2.8986   20.2120 C.3     1  UNL1        0.0704
     23 C           4.8029   -3.2352   18.7503 C.3     1  UNL1        0.0497
     24 O           4.5555   -1.2684   17.0709 O.co2   1  UNL1       -0.5492
     25 C           5.4139   -2.2851   17.7634 C.2     1  UNL1        0.0508
     26 O           6.8832   -2.3516   17.4689 O.co2   1  UNL1       -0.5492
@<TRIPOS>UNITY_ATOM_ATTR
24 1
charge -1
@<TRIPOS>BOND
     1    24    25   ar
     2    25    26   ar
     3    25    23    1
     4    23    22    1
     5    22     1    1
     6     1     2   ar
     7     2     3   ar
     8     3     4   ar
     9     4     5   ar
    10     5    10    1
    11    10    11   ar
    12    11    12   ar
    13    12    17    1
    14    17    18    1
    15    18    19    1
    16    18    20    1
    17    18    21    1
    18    12    13   ar
    19    13    14   ar
    20    14    15   ar
    21    15    16    1
    22     5     6   ar
    23     6     7   ar
    24     7     8   ar
    25     8     9   ar
    26     9     1   ar
    27     8     3   ar
    28    15    10   ar
@<TRIPOS>MOLECULE
*****
 26 28 0 0 0
SMALL
GASTEIGER

@<TRIPOS>ATOM
      1 C           2.4046    0.1962   30.2083 C.ar    1  UNL1        0.1232
      2 C           2.2946    1.1901   31.3264 C.ar    1  UNL1        0.0360
      3 C           3.0916    0.6724   32.4869 C.ar    1  UNL1        0.0372
      4 C           3.3465    1.2277   33.8568 C.ar    1  UNL1        0.0032
      5 C           4.2039    0.4691   34.8260 C.ar    1  UNL1        0.0025
      6 C           4.8064   -0.8448   34.4252 C.ar    1  UNL1        0.0032
      7 C           4.5515   -1.4001   33.0553 C.ar    1  UNL1        0.0375
      8 C           3.6941   -0.6415   32.0862 C.ar    1  UNL1        0.1448
      9 O           3.2695   -0.9358   30.6779 O.2     1  UNL1       -0.4578
     10 C           4.4588    1.0243   36.1960 C.ar    1  UNL1        0.0305
     11 C           3.3968    0.9337   37.2515 C.ar    1  UNL1        0.0394
     12 C           3.6517    1.4889   38.6214 C.ar    1  UNL1        0.1469
     13 C           4.9685    2.1348   38.9359 C.ar    1  UNL1        0.0395
     14 C           6.0305    2.2254   37.8804 C.ar    1  UNL1        0.0328
     15 C           5.7756    1.6702   36.5104 C.ar    1  UNL1        0.1403
     16 F           6.8375    1.7608   35.4549 F       1  UNL1       -0.2042
     17 O           2.5898    1.3983   39.6769 O.3     1  UNL1       -0.4045
     18 C           1.1609    1.1640   39.2851 C.3     1  UNL1        0.5753
     19 F          -0.2679    0.9297   38.8933 F       1  UNL1       -0.1328
     20 F           1.2846   -0.2738   39.6942 F       1  UNL1       -0.1328
     21 F           1.0373    2.6018   38.8760 F       1  UNL1       -0.1328
     22 C           1.7624    0.3136   28.8579 C.3     1  UNL1        0.0704
     23 C           0.4310   -0.3282   28.6021 C.3     1  UNL1        0.0497
     24 O          -1.7560    0.1997   29.9015 O.co2   1  UNL1       -0.5492
     25 C          -0.8288    0.4717   28.7543 C.2     1  UNL1        0.0508
     26 O          -1.1613    1.5437   27.7591 O.co2   1  UNL1       -0.5492
@<TRIPOS>UNITY_ATOM_ATTR
24 1
charge -1
@<TRIPOS>BOND
     1    24    25   ar
     2    25    26   ar
     3    25    23    1
     4    23    22    1
     5    22     1    1
     6     1     2   ar
     7     2     3   ar
     8     3     4   ar
     9     4     5   ar
    10     5    10    1
    11    10    11   ar
    12    11    12   ar
    13    12    17    1
    14    17    18    1
    15    18    19    1
    16    18    20    1
    17    18    21    1
    18    12    13   ar
    19    13    14   ar
    20    14    15   ar
    21    15    16    1
    22     5     6   ar
    23     6     7   ar
    24     7     8   ar
    25     8     9   ar
    26     9     1   ar
    27     8     3   ar
    28    15    10   ar
@<TRIPOS>MOLECULE
*****
 26 28 0 0 0
SMALL
GASTEIGER

@<TRIPOS>ATOM
      1 C          -1.0080    2.8789   24.9687 C.ar    1  UNL1        0.1232
      2 C           0.0801    1.8815   24.7015 C.ar    1  UNL1        0.0360
      3 C           0.2515    1.7694   23.2155 C.ar    1  UNL1        0.0372
      4 C           1.1750    0.9422   22.3713 C.ar    1  UNL1        0.0032
      5 C           1.1163    1.0430   20.8759 C.ar    1  UNL1        0.0025
      6 C           0.1342    1.9711   20.2247 C.ar    1  UNL1        0.0032
      7 C          -0.7893    2.7983   21.0689 C.ar    1  UNL1        0.0375
      8 C          -0.7307    2.6975   22.5643 C.ar    1  UNL1        0.1448
      9 O          -1.5091    3.3831   23.6479 O.2     1  UNL1       -0.4578
     10 C           2.0399    0.2158   20.0315 C.ar    1  UNL1        0.0305
     11 C           2.4958   -1.1289   20.5153 C.ar    1  UNL1        0.0394
     12 C           3.4193   -1.9561   19.6710 C.ar    1  UNL1        0.1469
     13 C           3.8869   -1.4387   18.3430 C.ar    1  UNL1        0.0395
     14 C           3.4310   -0.0941   17.8592 C.ar    1  UNL1        0.0328
     15 C           2.5074    0.7332   18.7035 C.ar    1  UNL1        0.1403
     16 F           2.0515    2.0779   18.2198 F       1  UNL1       -0.2042
     17 O           3.8752   -3.3008   20.1548 O.3     1  UNL1       -0.4045
     18 C           4.2850   -4.3535   19.1680 C.3     1  UNL1        0.5753
     19 F           4.6948   -5.4063   18.1812 F       1  UNL1       -0.1328
     20 F           2.8436   -4.6039   18.8367 F       1  UNL1       -0.1328
     21 F           5.7263   -4.1030   19.4993 F       1  UNL1       -0.1328
     22 C          -1.5073    3.2982   26.3195 C.3     1  UNL1        0.0704
     23 C          -2.4573    4.4524   26.4428 C.3     1  UNL1        0.0497
     24 O          -4.7939    4.6794   27.5558 O.co2   1  UNL1       -0.5492
     25 C          -3.9376    4.2115   26.4166 C.2     1  UNL1        0.0508
     26 O          -4.5616    3.5027   25.2511 O.co2   1  UNL1       -0.5492
@<TRIPOS>UNITY_ATOM_ATTR
24 1
charge -1
@<TRIPOS>BOND
     1    24    25   ar
     2    25    26   ar
     3    25    23    1
     4    23    22    1
     5    22     1    1
     6     1     2   ar
     7     2     3   ar
     8     3     4   ar
     9     4     5   ar
    10     5    10    1
    11    10    11   ar
    12    11    12   ar
    13    12    17    1
    14    17    18    1
    15    18    19    1
    16    18    20    1
    17    18    21    1
    18    12    13   ar
    19    13    14   ar
    20    14    15   ar
    21    15    16    1
    22     5     6   ar
    23     6     7   ar
    24     7     8   ar
    25     8     9   ar
    26     9     1   ar
    27     8     3   ar
    28    15    10   ar
@<TRIPOS>MOLECULE
*****
 26 28 0 0 0
SMALL
GASTEIGER

@<TRIPOS>ATOM
      1 C           3.3393    1.6216   36.7602 C.ar    1  UNL1        0.1232
      2 C           4.4106    0.5724   36.7993 C.ar    1  UNL1        0.0360
      3 C           4.7279    0.1809   35.3865 C.ar    1  UNL1        0.0372
      4 C           5.7006   -0.8063   34.8129 C.ar    1  UNL1        0.0032
      5 C           5.7982   -0.9863   33.3270 C.ar    1  UNL1        0.0025
      6 C           4.9229   -0.1791   32.4147 C.ar    1  UNL1        0.0032
      7 C           3.9502    0.8081   32.9882 C.ar    1  UNL1        0.0375
      8 C           3.8526    0.9881   34.4742 C.ar    1  UNL1        0.1448
      9 O           2.9945    1.8785   35.3232 O.2     1  UNL1       -0.4578
     10 C           6.7710   -1.9736   32.7533 C.ar    1  UNL1        0.0305
     11 C           6.2687   -3.2077   32.0643 C.ar    1  UNL1        0.0394
     12 C           7.2414   -4.1949   31.4906 C.ar    1  UNL1        0.1469
     13 C           8.7165   -3.9481   31.6060 C.ar    1  UNL1        0.0395
     14 C           9.2188   -2.7141   32.2951 C.ar    1  UNL1        0.0328
     15 C           8.2460   -1.7268   32.8687 C.ar    1  UNL1        0.1403
     16 F           8.7483   -0.4928   33.5578 F       1  UNL1       -0.2042
     17 O           6.7391   -5.4290   30.8015 O.3     1  UNL1       -0.4045
     18 C           7.0412   -5.6528   29.3495 C.3     1  UNL1        0.5753
     19 F           7.3434   -5.8766   27.8973 F       1  UNL1       -0.1328
     20 F           6.1706   -4.4859   28.9885 F       1  UNL1       -0.1328
     21 F           7.9118   -6.8196   29.7104 F       1  UNL1       -0.1328
     22 C           2.7214    2.2955   37.9493 C.3     1  UNL1        0.0704
     23 C           2.3619    1.4921   39.1639 C.3     1  UNL1        0.0497
     24 O          -0.2195    1.4943   38.8698 O.co2   1  UNL1       -0.5492
     25 C           1.0468    0.7732   39.2254 C.2     1  UNL1        0.0508
     26 O           0.9981   -0.6668   39.6426 O.co2   1  UNL1       -0.5492
@<TRIPOS>UNITY_ATOM_ATTR
24 1
charge -1
@<TRIPOS>BOND
     1    24    25   ar
     2    25    26   ar
     3    25    23    1
     4    23    22    1
     5    22     1    1
     6     1     2   ar
     7     2     3   ar
     8     3     4   ar
     9     4     5   ar
    10     5    10    1
    11    10    11   ar
    12    11    12   ar
    13    12    17    1
    14    17    18    1
    15    18    19    1
    16    18    20    1
    17    18    21    1
    18    12    13   ar
    19    13    14   ar
    20    14    15   ar
    21    15    16    1
    22     5     6   ar
    23     6     7   ar
    24     7     8   ar
    25     8     9   ar
    26     9     1   ar
    27     8     3   ar
    28    15    10   ar
