@<TRIPOS>MOLECULE
*****
 40 42 0 0 0
SMALL
GASTEIGER

@<TRIPOS>ATOM
      1 C           6.5439   -2.9211   25.8812 C.2     1  UNL1        0.2485
      2 O           6.9515   -1.5561   25.4115 O.2     1  UNL1       -0.2726
      3 N           5.8074   -3.8437   24.9558 N.am    1  UNL1       -0.2823
      4 H           5.5398   -4.7396   25.2641 H       1  UNL1        0.1549
      5 C           5.5377   -2.0636   31.3482 C.ar    1  UNL1        0.1055
      6 C           4.9347   -1.3238   30.1911 C.ar    1  UNL1        0.0181
      7 C           5.3188   -1.6860   28.7871 C.ar    1  UNL1       -0.0011
      8 C           6.3060   -2.7880   28.5403 C.ar    1  UNL1        0.0022
      9 C           6.9090   -3.5278   29.6974 C.ar    1  UNL1       -0.0030
     10 C           6.5248   -3.1656   31.1014 C.ar    1  UNL1        0.0155
     11 C           7.8485   -4.5605   29.1486 C.3     1  UNL1        0.1206
     12 N           7.8260   -4.4589   27.6522 N.am    1  UNL1       -0.2655
     13 C           8.6178   -5.3043   26.6991 C.2     1  UNL1        0.2269
     14 C           9.5359   -6.3677   27.2247 C.3     1  UNL1        0.0949
     15 O           8.4914   -5.0863   25.2204 O.2     1  UNL1       -0.2748
     16 C           6.8727   -3.3635   27.2763 C.3     1  UNL1        0.1750
     17 S           5.1535   -1.7013   32.7522 S.O2    1  UNL1        0.0112
     18 O           3.7162   -1.9883   32.4330 O.2     1  UNL1       -0.1685
     19 O           6.5907   -1.4144   33.0715 O.2     1  UNL1       -0.1685
     20 C           4.7693   -1.3391   34.1562 C.3     1  UNL1        0.1878
     21 C           5.7094   -0.5393   35.0084 C.3     1  UNL1        0.1680
     22 C           4.6250    0.4934   37.1316 C.3     1  UNL1        0.1742
     23 O           5.5360   -0.5161   36.4982 O.3     1  UNL1       -0.3492
     24 C           5.4785   -3.4013   23.5608 C.ar    1  UNL1        0.0503
     25 C           4.3184   -2.4816   23.3195 C.ar    1  UNL1        0.0144
     26 C           3.9896   -2.0392   21.9244 C.ar    1  UNL1       -0.0002
     27 C           4.8208   -2.5165   20.7707 C.ar    1  UNL1        0.0182
     28 C           5.9809   -3.4363   21.0120 C.ar    1  UNL1       -0.0002
     29 C           6.3097   -3.8786   22.4070 C.ar    1  UNL1        0.0144
     30 C           4.4919   -2.0742   19.3756 C.3     1  UNL1        0.2827
     31 O           5.2915   -0.8223   19.5841 O.3     1  UNL1       -0.3692
     32 H           5.6643   -0.8221   20.4796 H       1  UNL1        0.2112
     33 C           4.1631   -1.6318   17.9806 C.3     1  UNL1        0.4311
     34 F           3.8342   -1.1894   16.5855 F       1  UNL1       -0.1669
     35 F           3.1063   -0.7144   18.5206 F       1  UNL1       -0.1669
     36 F           4.7588   -2.1376   17.5637 F       1  UNL1       -0.1669
     37 C           3.6924   -3.3260   19.1671 C.3     1  UNL1        0.4311
     38 F           2.8928   -4.5779   18.9586 F       1  UNL1       -0.1669
     39 F           2.9269   -3.0207   19.4917 F       1  UNL1       -0.1669
     40 F           4.6708   -4.2838   18.5544 F       1  UNL1       -0.1669
@<TRIPOS>BOND
     1    22    23    1
     2    23    21    1
     3    21    20    1
     4    20    17    1
     5    17    18    2
     6    17    19    2
     7    17     5    1
     8     5     6   ar
     9     6     7   ar
    10     7     8   ar
    11     8     9   ar
    12     9    10   ar
    13     9    11    1
    14    11    12    1
    15    12    13   am
    16    13    14    1
    17    13    15    2
    18    12    16    1
    19    16     1    1
    20     1     2    2
    21     1     3   am
    22     3    24    1
    23    24    25   ar
    24    25    26   ar
    25    26    27   ar
    26    27    30    1
    27    30    31    1
    28    30    33    1
    29    33    34    1
    30    33    35    1
    31    33    36    1
    32    30    37    1
    33    37    38    1
    34    37    39    1
    35    37    40    1
    36    27    28   ar
    37    28    29   ar
    38    10     5   ar
    39    29    24   ar
    40    16     8    1
    41     3     4    1
    42    31    32    1
@<TRIPOS>MOLECULE
*****
 40 42 0 0 0
SMALL
GASTEIGER

@<TRIPOS>ATOM
      1 C          -0.3331    2.6641   20.5204 C.2     1  UNL1        0.2485
      2 O           0.9734    3.2948   20.9014 O.2     1  UNL1       -0.2726
      3 N          -0.3582    1.2768   19.9504 N.am    1  UNL1       -0.2823
      4 H          -1.2157    0.8628   19.7004 H       1  UNL1        0.1549
      5 C          -4.0339    4.5966   24.2896 C.ar    1  UNL1        0.1055
      6 C          -2.7809    3.8206   24.5685 C.ar    1  UNL1        0.0181
      7 C          -1.9029    3.3809   23.4346 C.ar    1  UNL1       -0.0011
      8 C          -2.2779    3.7171   22.0217 C.ar    1  UNL1        0.0022
      9 C          -3.5309    4.4931   21.7428 C.ar    1  UNL1       -0.0030
     10 C          -4.4089    4.9328   22.8767 C.ar    1  UNL1        0.0155
     11 C          -3.6419    4.6761   20.2581 C.3     1  UNL1        0.1206
     12 N          -2.4576    4.0132   19.6195 N.am    1  UNL1       -0.2655
     13 C          -2.1671    3.9535   18.1490 C.2     1  UNL1        0.2269
     14 C          -3.1071    4.5957   17.1722 C.3     1  UNL1        0.0949
     15 O          -0.9368    3.2516   17.6555 O.2     1  UNL1       -0.2748
     16 C          -1.6145    3.4206   20.7095 C.3     1  UNL1        0.1750
     17 S          -4.9119    5.0363   25.4235 S.O2    1  UNL1        0.0112
     18 O          -5.0209    3.6149   25.8902 O.2     1  UNL1       -0.1685
     19 O          -4.8028    6.4576   24.9567 O.2     1  UNL1       -0.1685
     20 C          -5.7899    5.4760   26.5574 C.3     1  UNL1        0.1878
     21 C          -7.0620    6.2194   26.2763 C.3     1  UNL1        0.1680
     22 C          -7.6327    6.2787   28.8102 C.3     1  UNL1        0.1742
     23 O          -8.0470    6.4647   27.3806 O.3     1  UNL1       -0.3492
     24 C           0.9232    0.5204   19.7614 C.ar    1  UNL1        0.0503
     25 C           1.4295   -0.3808   20.8483 C.ar    1  UNL1        0.0144
     26 C           2.7109   -1.1373   20.6593 C.ar    1  UNL1       -0.0002
     27 C           3.4860   -0.9926   19.3833 C.ar    1  UNL1        0.0182
     28 C           2.9798   -0.0914   18.2964 C.ar    1  UNL1       -0.0002
     29 C           1.6983    0.6651   18.4854 C.ar    1  UNL1        0.0144
     30 C           4.7674   -1.7491   19.1943 C.3     1  UNL1        0.2827
     31 O           5.5354   -0.4617   19.2485 O.3     1  UNL1       -0.3692
     32 H           4.9197    0.2770   19.3754 H       1  UNL1        0.2112
     33 C           6.0488   -2.5055   19.0053 C.3     1  UNL1        0.4311
     34 F           7.3302   -3.2620   18.8162 F       1  UNL1       -0.1669
     35 F           6.4432   -2.1905   20.4178 F       1  UNL1       -0.1669
     36 F           5.9099   -2.7447   18.1638 F       1  UNL1       -0.1669
     37 C           3.9995   -3.0364   19.1401 C.3     1  UNL1        0.4311
     38 F           3.2315   -4.3238   19.0859 F       1  UNL1       -0.1669
     39 F           3.6107   -2.8974   18.3565 F       1  UNL1       -0.1669
     40 F           4.3658   -3.7316   20.4178 F       1  UNL1       -0.1669
@<TRIPOS>BOND
     1    22    23    1
     2    23    21    1
     3    21    20    1
     4    20    17    1
     5    17    18    2
     6    17    19    2
     7    17     5    1
     8     5     6   ar
     9     6     7   ar
    10     7     8   ar
    11     8     9   ar
    12     9    10   ar
    13     9    11    1
    14    11    12    1
    15    12    13   am
    16    13    14    1
    17    13    15    2
    18    12    16    1
    19    16     1    1
    20     1     2    2
    21     1     3   am
    22     3    24    1
    23    24    25   ar
    24    25    26   ar
    25    26    27   ar
    26    27    30    1
    27    30    31    1
    28    30    33    1
    29    33    34    1
    30    33    35    1
    31    33    36    1
    32    30    37    1
    33    37    38    1
    34    37    39    1
    35    37    40    1
    36    27    28   ar
    37    28    29   ar
    38    10     5   ar
    39    29    24   ar
    40    16     8    1
    41     3     4    1
    42    31    32    1
@<TRIPOS>MOLECULE
*****
 40 42 0 0 0
SMALL
GASTEIGER

@<TRIPOS>ATOM
      1 C           5.7561   -1.7999   25.9296 C.2     1  UNL1        0.2485
      2 O           6.2345   -0.5065   25.3397 O.2     1  UNL1       -0.2726
      3 N           5.0566   -2.8056   25.0640 N.am    1  UNL1       -0.2823
      4 H           4.7426   -3.6546   25.4512 H       1  UNL1        0.1549
      5 C           4.4031   -0.3105   31.1819 C.ar    1  UNL1        0.1055
      6 C           3.9003    0.3048   29.9098 C.ar    1  UNL1        0.0181
      7 C           4.3694   -0.2211   28.5856 C.ar    1  UNL1       -0.0011
      8 C           5.3413   -1.3624   28.5337 C.ar    1  UNL1        0.0022
      9 C           5.8441   -1.9777   29.8059 C.ar    1  UNL1       -0.0030
     10 C           5.3750   -1.4518   31.1300 C.ar    1  UNL1        0.0155
     11 C           6.7909   -3.0834   29.4435 C.3     1  UNL1        0.1206
     12 N           6.8731   -3.1514   27.9473 N.am    1  UNL1       -0.2655
     13 C           7.7051   -4.1140   27.1528 C.2     1  UNL1        0.2269
     14 C           8.5566   -5.1282   27.8573 C.3     1  UNL1        0.0949
     15 O           7.6857   -4.0624   25.6538 O.2     1  UNL1       -0.2748
     16 C           5.9772   -2.0877   27.3850 C.3     1  UNL1        0.1750
     17 S           3.9339    0.2155   32.5061 S.O2    1  UNL1        0.0112
     18 O           3.7631   -1.1893   33.0035 O.2     1  UNL1       -0.1685
     19 O           4.1048    1.6202   32.0086 O.2     1  UNL1       -0.1685
     20 C           3.4648    0.7414   33.8302 C.3     1  UNL1        0.1878
     21 C           2.6527    2.0010   33.8918 C.3     1  UNL1        0.1680
     22 C           2.9006    2.2206   36.4687 C.3     1  UNL1        0.1742
     23 O           2.1330    2.4946   35.2094 O.3     1  UNL1       -0.3492
     24 C           4.8355   -2.5179   23.6086 C.ar    1  UNL1        0.0503
     25 C           3.7442   -1.5790   23.1871 C.ar    1  UNL1        0.0144
     26 C           3.5231   -1.2912   21.7317 C.ar    1  UNL1       -0.0002
     27 C           4.3932   -1.9422   20.6977 C.ar    1  UNL1        0.0182
     28 C           5.4845   -2.8810   21.1193 C.ar    1  UNL1       -0.0002
     29 C           5.7056   -3.1688   22.5747 C.ar    1  UNL1        0.0144
     30 C           4.1720   -1.6544   19.2423 C.3     1  UNL1        0.2827
     31 O           4.7806   -0.2948   19.4187 O.3     1  UNL1       -0.3692
     32 H           5.0466   -0.1772   20.3441 H       1  UNL1        0.2112
     33 C           3.9509   -1.3666   17.7869 C.3     1  UNL1        0.4311
     34 F           3.7298   -1.0788   16.3315 F       1  UNL1       -0.1669
     35 F           2.7841   -0.4916   18.1372 F       1  UNL1       -0.1669
     36 F           4.6189   -1.8588   17.4768 F       1  UNL1       -0.1669
     37 C           3.5635   -3.0140   19.0659 C.3     1  UNL1        0.4311
     38 F           2.9549   -4.3736   18.8895 F       1  UNL1       -0.1669
     39 F           2.7641   -2.8178   19.3930 F       1  UNL1       -0.1669
     40 F           4.6671   -3.8299   18.4607 F       1  UNL1       -0.1669
@<TRIPOS>BOND
     1    22    23    1
     2    23    21    1
     3    21    20    1
     4    20    17    1
     5    17    18    2
     6    17    19    2
     7    17     5    1
     8     5     6   ar
     9     6     7   ar
    10     7     8   ar
    11     8     9   ar
    12     9    10   ar
    13     9    11    1
    14    11    12    1
    15    12    13   am
    16    13    14    1
    17    13    15    2
    18    12    16    1
    19    16     1    1
    20     1     2    2
    21     1     3   am
    22     3    24    1
    23    24    25   ar
    24    25    26   ar
    25    26    27   ar
    26    27    30    1
    27    30    31    1
    28    30    33    1
    29    33    34    1
    30    33    35    1
    31    33    36    1
    32    30    37    1
    33    37    38    1
    34    37    39    1
    35    37    40    1
    36    27    28   ar
    37    28    29   ar
    38    10     5   ar
    39    29    24   ar
    40    16     8    1
    41     3     4    1
    42    31    32    1
@<TRIPOS>MOLECULE
*****
 40 42 0 0 0
SMALL
GASTEIGER

@<TRIPOS>ATOM
      1 C          -0.9090    3.3756   20.6359 C.2     1  UNL1        0.2485
      2 O          -0.8338    3.2741   22.1305 O.2     1  UNL1       -0.2726
      3 N          -2.1968    3.7690   19.9748 N.am    1  UNL1       -0.2823
      4 H          -2.2462    3.8357   18.9938 H       1  UNL1        0.1549
      5 C           2.7876   -0.5748   19.0980 C.ar    1  UNL1        0.1055
      6 C           1.6302   -0.7367   20.0382 C.ar    1  UNL1        0.0181
      7 C           0.7386    0.4317   20.3384 C.ar    1  UNL1       -0.0011
      8 C           1.0046    1.7619   19.6984 C.ar    1  UNL1        0.0022
      9 C           2.1620    1.9238   18.7582 C.ar    1  UNL1       -0.0030
     10 C           3.0536    0.7555   18.4580 C.ar    1  UNL1        0.0155
     11 C           2.1762    3.3459   18.2810 C.3     1  UNL1        0.1206
     12 N           1.0275    4.0628   18.9263 N.am    1  UNL1       -0.2655
     13 C           0.6663    5.5055   18.7301 C.2     1  UNL1        0.2269
     14 C           1.4881    6.3670   17.8178 C.3     1  UNL1        0.0949
     15 O          -0.5167    6.0865   19.4463 O.2     1  UNL1       -0.2748
     16 C           0.3034    3.0839   19.8023 C.3     1  UNL1        0.1750
     17 S           3.6792   -1.7431   18.7978 S.O2    1  UNL1        0.0112
     18 O           4.1007   -1.0916   17.5141 O.2     1  UNL1       -0.1685
     19 O           3.2576   -2.3946   20.0815 O.2     1  UNL1       -0.1685
     20 C           4.5707   -2.9115   18.4976 C.3     1  UNL1        0.1878
     21 C           4.4900   -4.1517   19.3374 C.3     1  UNL1        0.1680
     22 C           6.8114   -3.6396   20.3857 C.3     1  UNL1        0.1742
     23 O           5.6766   -4.5902   20.1434 O.3     1  UNL1       -0.3492
     24 C          -3.4092    4.0608   20.8083 C.ar    1  UNL1        0.0503
     25 C          -3.8860    5.4738   20.9699 C.ar    1  UNL1        0.0144
     26 C          -5.0984    5.7656   21.8035 C.ar    1  UNL1       -0.0002
     27 C          -5.8342    4.6444   22.4755 C.ar    1  UNL1        0.0182
     28 C          -5.3574    3.2314   22.3139 C.ar    1  UNL1       -0.0002
     29 C          -4.1449    2.9396   21.4803 C.ar    1  UNL1        0.0144
     30 C          -7.0466    4.9362   23.3090 C.3     1  UNL1        0.2827
     31 O          -7.8635    5.1035   22.0622 O.3     1  UNL1       -0.3692
     32 H          -7.3004    4.9617   21.2852 H       1  UNL1        0.2112
     33 C          -8.2590    5.2279   24.1426 C.3     1  UNL1        0.4311
     34 F          -9.4715    5.5197   24.9762 F       1  UNL1       -0.1669
     35 F          -8.8281    3.8871   23.7843 F       1  UNL1       -0.1669
     36 F          -8.0128    6.0348   24.4126 F       1  UNL1       -0.1669
     37 C          -6.2297    4.7688   24.5559 C.3     1  UNL1        0.4311
     38 F          -5.4127    4.6015   25.8027 F       1  UNL1       -0.1669
     39 F          -6.5076    3.9525   24.7584 F       1  UNL1       -0.1669
     40 F          -5.4745    6.0597   24.6710 F       1  UNL1       -0.1669
@<TRIPOS>BOND
     1    22    23    1
     2    23    21    1
     3    21    20    1
     4    20    17    1
     5    17    18    2
     6    17    19    2
     7    17     5    1
     8     5     6   ar
     9     6     7   ar
    10     7     8   ar
    11     8     9   ar
    12     9    10   ar
    13     9    11    1
    14    11    12    1
    15    12    13   am
    16    13    14    1
    17    13    15    2
    18    12    16    1
    19    16     1    1
    20     1     2    2
    21     1     3   am
    22     3    24    1
    23    24    25   ar
    24    25    26   ar
    25    26    27   ar
    26    27    30    1
    27    30    31    1
    28    30    33    1
    29    33    34    1
    30    33    35    1
    31    33    36    1
    32    30    37    1
    33    37    38    1
    34    37    39    1
    35    37    40    1
    36    27    28   ar
    37    28    29   ar
    38    10     5   ar
    39    29    24   ar
    40    16     8    1
    41     3     4    1
    42    31    32    1
@<TRIPOS>MOLECULE
*****
 40 42 0 0 0
SMALL
GASTEIGER

@<TRIPOS>ATOM
      1 C           3.0892    0.4143   26.5672 C.2     1  UNL1        0.2485
      2 O           4.1461    1.4084   26.9474 O.2     1  UNL1       -0.2726
      3 N           2.6251   -0.6052   27.5648 N.am    1  UNL1       -0.2823
      4 H           1.9314   -1.2578   27.3153 H       1  UNL1        0.1549
      5 C           3.7105   -1.3040   21.2477 C.ar    1  UNL1        0.1055
      6 C           4.6259   -1.5866   22.4018 C.ar    1  UNL1        0.0181
      7 C           4.3050   -1.0457   23.7636 C.ar    1  UNL1       -0.0011
      8 C           3.0686   -0.2222   23.9712 C.ar    1  UNL1        0.0022
      9 C           2.1532    0.0604   22.8171 C.ar    1  UNL1       -0.0030
     10 C           2.4741   -0.4805   21.4553 C.ar    1  UNL1        0.0155
     11 C           1.0151    0.8970   23.3221 C.3     1  UNL1        0.1206
     12 N           1.2273    1.1314   24.7884 N.am    1  UNL1       -0.2655
     13 C           0.3281    1.9192   25.6946 C.2     1  UNL1        0.2269
     14 C          -0.9142    2.5579   25.1481 C.3     1  UNL1        0.0949
     15 O           0.6714    2.0683   27.1471 O.2     1  UNL1       -0.2748
     16 C           2.4964    0.4397   25.1896 C.3     1  UNL1        0.1750
     17 S           4.0314   -1.8449   19.8859 S.O2    1  UNL1        0.0112
     18 O           3.0628   -0.8772   19.2732 O.2     1  UNL1       -0.1685
     19 O           5.0000   -2.8126   20.4985 O.2     1  UNL1       -0.1685
     20 C           4.3523   -2.3858   18.5241 C.3     1  UNL1        0.1878
     21 C           5.7507   -2.8215   18.2006 C.3     1  UNL1        0.1680
     22 C           6.3272   -0.4347   17.3516 C.3     1  UNL1        0.1742
     23 O           6.6821   -1.8857   17.4887 O.3     1  UNL1       -0.3492
     24 C           3.2179   -0.6306   28.9424 C.ar    1  UNL1        0.0503
     25 C           4.6437   -1.0536   29.1377 C.ar    1  UNL1        0.0144
     26 C           5.2366   -1.0790   30.5153 C.ar    1  UNL1       -0.0002
     27 C           4.4036   -0.6814   31.6977 C.ar    1  UNL1        0.0182
     28 C           2.9778   -0.2585   31.5024 C.ar    1  UNL1       -0.0002
     29 C           2.3850   -0.2331   30.1248 C.ar    1  UNL1        0.0144
     30 C           4.9965   -0.7068   33.0754 C.3     1  UNL1        0.2827
     31 O           4.6372    0.7382   33.2566 O.3     1  UNL1       -0.3692
     32 H           4.1983    1.0652   32.4557 H       1  UNL1        0.2112
     33 C           5.5893   -0.7322   34.4530 C.3     1  UNL1        0.4311
     34 F           6.1821   -0.7576   35.8306 F       1  UNL1       -0.1669
     35 F           6.7138    0.1433   33.9852 F       1  UNL1       -0.1669
     36 F           4.9728   -1.2472   34.8263 F       1  UNL1       -0.1669
     37 C           5.3557   -2.1518   32.8942 C.3     1  UNL1        0.4311
     38 F           5.7149   -3.5968   32.7129 F       1  UNL1       -0.1669
     39 F           6.2309   -2.0371   32.8205 F       1  UNL1       -0.1669
     40 F           4.0366   -2.8636   32.9506 F       1  UNL1       -0.1669
@<TRIPOS>BOND
     1    22    23    1
     2    23    21    1
     3    21    20    1
     4    20    17    1
     5    17    18    2
     6    17    19    2
     7    17     5    1
     8     5     6   ar
     9     6     7   ar
    10     7     8   ar
    11     8     9   ar
    12     9    10   ar
    13     9    11    1
    14    11    12    1
    15    12    13   am
    16    13    14    1
    17    13    15    2
    18    12    16    1
    19    16     1    1
    20     1     2    2
    21     1     3   am
    22     3    24    1
    23    24    25   ar
    24    25    26   ar
    25    26    27   ar
    26    27    30    1
    27    30    31    1
    28    30    33    1
    29    33    34    1
    30    33    35    1
    31    33    36    1
    32    30    37    1
    33    37    38    1
    34    37    39    1
    35    37    40    1
    36    27    28   ar
    37    28    29   ar
    38    10     5   ar
    39    29    24   ar
    40    16     8    1
    41     3     4    1
    42    31    32    1
@<TRIPOS>MOLECULE
*****
 40 42 0 0 0
SMALL
GASTEIGER

@<TRIPOS>ATOM
      1 C           1.4092    1.4096   24.4293 C.2     1  UNL1        0.2485
      2 O           2.2237    2.4228   23.6811 O.2     1  UNL1       -0.2726
      3 N           1.5129   -0.0446   24.0763 N.am    1  UNL1       -0.2823
      4 H           0.9783   -0.7097   24.5674 H       1  UNL1        0.1549
      5 C          -3.4239    4.0222   25.6344 C.ar    1  UNL1        0.1055
      6 C          -2.8399    3.7839   24.2735 C.ar    1  UNL1        0.0181
      7 C          -1.5310    3.0644   24.1344 C.ar    1  UNL1       -0.0011
      8 C          -0.8062    2.5833   25.3563 C.ar    1  UNL1        0.0022
      9 C          -1.3902    2.8216   26.7172 C.ar    1  UNL1       -0.0030
     10 C          -2.6990    3.5411   26.8563 C.ar    1  UNL1        0.0155
     11 C          -0.4539    2.2360   27.7325 C.3     1  UNL1        0.1206
     12 N           0.7086    1.6358   26.9990 N.am    1  UNL1       -0.2655
     13 C           1.8829    0.9426   27.6242 C.2     1  UNL1        0.2269
     14 C           1.9642    0.8024   29.1154 C.3     1  UNL1        0.0949
     15 O           2.9756    0.3896   26.7582 O.2     1  UNL1       -0.2748
     16 C           0.4909    1.8504   25.5304 C.3     1  UNL1        0.1750
     17 S          -4.7327    4.7417   25.7734 S.O2    1  UNL1        0.0112
     18 O          -5.4626    3.4866   25.3967 O.2     1  UNL1       -0.1685
     19 O          -4.0028    5.9968   26.1501 O.2     1  UNL1       -0.1685
     20 C          -6.0415    5.4611   25.9124 C.3     1  UNL1        0.1878
     21 C          -7.0143    5.4758   24.7707 C.3     1  UNL1        0.1680
     22 C          -6.5362    4.7284   22.3288 C.3     1  UNL1        0.1742
     23 O          -6.5387    5.7944   23.3842 O.3     1  UNL1       -0.3492
     24 C           2.4311   -0.4855   22.9752 C.ar    1  UNL1        0.0503
     25 C           3.7363   -1.1464   23.3064 C.ar    1  UNL1        0.0144
     26 C           4.6545   -1.5873   22.2053 C.ar    1  UNL1       -0.0002
     27 C           4.2677   -1.3672   20.7729 C.ar    1  UNL1        0.0182
     28 C           2.9625   -0.7062   20.4416 C.ar    1  UNL1       -0.0002
     29 C           2.0443   -0.2654   21.5428 C.ar    1  UNL1        0.0144
     30 C           5.1859   -1.8080   19.6718 C.3     1  UNL1        0.2827
     31 O           6.1464   -0.7147   20.0350 O.3     1  UNL1       -0.3692
     32 H           5.7937   -0.2103   20.7847 H       1  UNL1        0.2112
     33 C           6.1041   -2.2489   18.5706 C.3     1  UNL1        0.4311
     34 F           7.0223   -2.6897   17.4695 F       1  UNL1       -0.1669
     35 F           5.7363   -1.0308   17.7762 F       1  UNL1       -0.1669
     36 F           6.3858   -2.9945   18.9570 F       1  UNL1       -0.1669
     37 C           4.2253   -2.9014   19.3085 C.3     1  UNL1        0.4311
     38 F           3.2648   -3.9947   18.9452 F       1  UNL1       -0.1669
     39 F           3.9149   -2.5303   18.5665 F       1  UNL1       -0.1669
     40 F           4.3923   -3.9106   20.4056 F       1  UNL1       -0.1669
@<TRIPOS>BOND
     1    22    23    1
     2    23    21    1
     3    21    20    1
     4    20    17    1
     5    17    18    2
     6    17    19    2
     7    17     5    1
     8     5     6   ar
     9     6     7   ar
    10     7     8   ar
    11     8     9   ar
    12     9    10   ar
    13     9    11    1
    14    11    12    1
    15    12    13   am
    16    13    14    1
    17    13    15    2
    18    12    16    1
    19    16     1    1
    20     1     2    2
    21     1     3   am
    22     3    24    1
    23    24    25   ar
    24    25    26   ar
    25    26    27   ar
    26    27    30    1
    27    30    31    1
    28    30    33    1
    29    33    34    1
    30    33    35    1
    31    33    36    1
    32    30    37    1
    33    37    38    1
    34    37    39    1
    35    37    40    1
    36    27    28   ar
    37    28    29   ar
    38    10     5   ar
    39    29    24   ar
    40    16     8    1
    41     3     4    1
    42    31    32    1
@<TRIPOS>MOLECULE
*****
 40 42 0 0 0
SMALL
GASTEIGER

@<TRIPOS>ATOM
      1 C           1.6885    1.5296   25.2613 C.2     1  UNL1        0.2485
      2 O           2.9208    2.2730   25.6844 O.2     1  UNL1       -0.2726
      3 N           0.7095    1.0524   26.2927 N.am    1  UNL1       -0.2823
      4 H          -0.0993    0.5645   26.0151 H       1  UNL1        0.1549
      5 C           3.3068   -1.4405   20.7674 C.ar    1  UNL1        0.1055
      6 C           3.8924   -1.4970   22.1471 C.ar    1  UNL1        0.0181
      7 C           3.3338   -0.6286   23.2352 C.ar    1  UNL1       -0.0011
      8 C           2.1895    0.2963   22.9434 C.ar    1  UNL1        0.0022
      9 C           1.6039    0.3528   21.5637 C.ar    1  UNL1       -0.0030
     10 C           2.1625   -0.5156   20.4756 C.ar    1  UNL1        0.0155
     11 C           0.4878    1.3550   21.5745 C.3     1  UNL1        0.1206
     12 N           0.3837    1.9178   22.9610 N.am    1  UNL1       -0.2655
     13 C          -0.5996    2.9532   23.4207 C.2     1  UNL1        0.2269
     14 C          -1.5983    3.5198   22.4557 C.3     1  UNL1        0.0949
     15 O          -0.5840    3.4219   24.8455 O.2     1  UNL1       -0.2748
     16 C           1.4354    1.2635   23.8070 C.3     1  UNL1        0.1750
     17 S           3.8654   -2.3089   19.6793 S.O2    1  UNL1        0.0112
     18 O           3.3977   -1.3217   18.6513 O.2     1  UNL1       -0.1685
     19 O           4.3332   -3.2960   20.7073 O.2     1  UNL1       -0.1685
     20 C           4.4241   -3.1772   18.5913 C.3     1  UNL1        0.1878
     21 C           5.8865   -3.1202   18.2626 C.3     1  UNL1        0.1680
     22 C           6.6872   -0.6941   17.7904 C.3     1  UNL1        0.1742
     23 O           6.4005   -2.0847   17.3068 O.3     1  UNL1       -0.3492
     24 C           0.9626    1.3186   27.7470 C.ar    1  UNL1        0.0503
     25 C           0.7028    2.6818   28.3163 C.ar    1  UNL1        0.0144
     26 C           0.9560    2.9480   29.7706 C.ar    1  UNL1       -0.0002
     27 C           1.4689    1.8510   30.6557 C.ar    1  UNL1        0.0182
     28 C           1.7288    0.4877   30.0864 C.ar    1  UNL1       -0.0002
     29 C           1.4756    0.2216   28.6321 C.ar    1  UNL1        0.0144
     30 C           1.7221    2.1171   32.1100 C.3     1  UNL1        0.2827
     31 O           0.3724    1.5564   32.4476 O.3     1  UNL1       -0.3692
     32 H          -0.0728    1.2733   31.6337 H       1  UNL1        0.2112
     33 C           1.9753    2.3833   33.5643 C.3     1  UNL1        0.4311
     34 F           2.2284    2.6494   35.0186 F       1  UNL1       -0.1669
     35 F           2.8236    1.1487   33.6426 F       1  UNL1       -0.1669
     36 F           1.4963    3.1260   33.6231 F       1  UNL1       -0.1669
     37 C           3.0718    2.6778   31.7724 C.3     1  UNL1        0.4311
     38 F           4.4214    3.2386   31.4349 F       1  UNL1       -0.1669
     39 F           3.4867    1.9028   31.6639 F       1  UNL1       -0.1669
     40 F           2.8724    4.1634   31.8302 F       1  UNL1       -0.1669
@<TRIPOS>BOND
     1    22    23    1
     2    23    21    1
     3    21    20    1
     4    20    17    1
     5    17    18    2
     6    17    19    2
     7    17     5    1
     8     5     6   ar
     9     6     7   ar
    10     7     8   ar
    11     8     9   ar
    12     9    10   ar
    13     9    11    1
    14    11    12    1
    15    12    13   am
    16    13    14    1
    17    13    15    2
    18    12    16    1
    19    16     1    1
    20     1     2    2
    21     1     3   am
    22     3    24    1
    23    24    25   ar
    24    25    26   ar
    25    26    27   ar
    26    27    30    1
    27    30    31    1
    28    30    33    1
    29    33    34    1
    30    33    35    1
    31    33    36    1
    32    30    37    1
    33    37    38    1
    34    37    39    1
    35    37    40    1
    36    27    28   ar
    37    28    29   ar
    38    10     5   ar
    39    29    24   ar
    40    16     8    1
    41     3     4    1
    42    31    32    1
@<TRIPOS>MOLECULE
*****
 40 42 0 0 0
SMALL
GASTEIGER

@<TRIPOS>ATOM
      1 C           2.3580    0.3638   27.8486 C.2     1  UNL1        0.2485
      2 O           2.4199   -1.0732   28.2741 O.2     1  UNL1       -0.2726
      3 N           2.8443    1.4411   28.7722 N.am    1  UNL1       -0.2823
      4 H           2.8037    2.3843   28.4929 H       1  UNL1        0.1549
      5 C           3.1704    0.0004   22.2948 C.ar    1  UNL1        0.1055
      6 C           4.0511   -0.5532   23.3755 C.ar    1  UNL1        0.0181
      7 C           3.6802   -0.3627   24.8164 C.ar    1  UNL1       -0.0011
      8 C           2.4286    0.3815   25.1766 C.ar    1  UNL1        0.0022
      9 C           1.5479    0.9351   24.0959 C.ar    1  UNL1       -0.0030
     10 C           1.9188    0.7445   22.6550 C.ar    1  UNL1        0.0155
     11 C           0.3848    1.6194   24.7509 C.3     1  UNL1        0.1206
     12 N           0.5467    1.4887   26.2364 N.am    1  UNL1       -0.2655
     13 C          -0.3901    2.0283   27.2763 C.2     1  UNL1        0.2269
     14 C          -1.6211    2.7776   26.8603 C.3     1  UNL1        0.0949
     15 O          -0.0957    1.8187   28.7321 O.2     1  UNL1       -0.2748
     16 C           1.8098    0.7236   26.4995 C.3     1  UNL1        0.1750
     17 S           3.5413   -0.1901   20.8539 S.O2    1  UNL1        0.0112
     18 O           2.8586   -1.5257   20.8548 O.2     1  UNL1       -0.1685
     19 O           4.2240    1.1456   20.8531 O.2     1  UNL1       -0.1685
     20 C           3.9122   -0.3806   19.4131 C.3     1  UNL1        0.1878
     21 C           3.2361    0.4341   18.3505 C.3     1  UNL1        0.1680
     22 C           0.8871    1.5038   18.6472 C.3     1  UNL1        0.1742
     23 O           1.7468    0.3644   18.1859 O.3     1  UNL1       -0.3492
     24 C           3.3924    1.0813   30.1213 C.ar    1  UNL1        0.0503
     25 C           4.8312    0.6819   30.2641 C.ar    1  UNL1        0.0144
     26 C           5.3793    0.3221   31.6132 C.ar    1  UNL1       -0.0002
     27 C           4.4888    0.3617   32.8195 C.ar    1  UNL1        0.0182
     28 C           3.0500    0.7612   32.6767 C.ar    1  UNL1       -0.0002
     29 C           2.5019    1.1210   31.3276 C.ar    1  UNL1        0.0144
     30 C           5.0369    0.0020   34.1686 C.3     1  UNL1        0.2827
     31 O           5.3102    1.4509   34.4440 O.3     1  UNL1       -0.3692
     32 H           5.0350    1.9826   33.6808 H       1  UNL1        0.2112
     33 C           5.5851   -0.3578   35.5177 C.3     1  UNL1        0.4311
     34 F           6.1332   -0.7176   36.8668 F       1  UNL1       -0.1669
     35 F           4.2429   -0.0942   36.1334 F       1  UNL1       -0.1669
     36 F           6.4112   -0.5382   35.2540 F       1  UNL1       -0.1669
     37 C           4.7636   -1.4470   33.8933 C.3     1  UNL1        0.4311
     38 F           4.4903   -2.8959   33.6179 F       1  UNL1       -0.1669
     39 F           3.9348   -1.4618   34.2054 F       1  UNL1       -0.1669
     40 F           6.0369   -1.9458   33.2770 F       1  UNL1       -0.1669
@<TRIPOS>BOND
     1    22    23    1
     2    23    21    1
     3    21    20    1
     4    20    17    1
     5    17    18    2
     6    17    19    2
     7    17     5    1
     8     5     6   ar
     9     6     7   ar
    10     7     8   ar
    11     8     9   ar
    12     9    10   ar
    13     9    11    1
    14    11    12    1
    15    12    13   am
    16    13    14    1
    17    13    15    2
    18    12    16    1
    19    16     1    1
    20     1     2    2
    21     1     3   am
    22     3    24    1
    23    24    25   ar
    24    25    26   ar
    25    26    27   ar
    26    27    30    1
    27    30    31    1
    28    30    33    1
    29    33    34    1
    30    33    35    1
    31    33    36    1
    32    30    37    1
    33    37    38    1
    34    37    39    1
    35    37    40    1
    36    27    28   ar
    37    28    29   ar
    38    10     5   ar
    39    29    24   ar
    40    16     8    1
    41     3     4    1
    42    31    32    1
@<TRIPOS>MOLECULE
*****
 40 42 0 0 0
SMALL
GASTEIGER

@<TRIPOS>ATOM
      1 C           5.5310   -1.5936   26.8238 C.2     1  UNL1        0.2485
      2 O           6.4324   -0.5703   26.1992 O.2     1  UNL1       -0.2726
      3 N           4.3731   -2.1469   26.0471 N.am    1  UNL1       -0.2823
      4 H           3.7814   -2.8186   26.4570 H       1  UNL1        0.1549
      5 C           5.1294   -0.2734   32.2765 C.ar    1  UNL1        0.1055
      6 C           4.7144    0.5716   31.1087 C.ar    1  UNL1        0.0181
      7 C           4.8946    0.0592   29.7105 C.ar    1  UNL1       -0.0011
      8 C           5.4898   -1.2981   29.4801 C.ar    1  UNL1        0.0022
      9 C           5.9049   -2.1431   30.6478 C.ar    1  UNL1       -0.0030
     10 C           5.7247   -1.6307   32.0460 C.ar    1  UNL1        0.0155
     11 C           6.4590   -3.4310   30.1144 C.3     1  UNL1        0.1206
     12 N           6.3864   -3.3819   28.6170 N.am    1  UNL1       -0.2655
     13 C           6.8341   -4.4614   27.6766 C.2     1  UNL1        0.2269
     14 C           7.4175   -5.7330   28.2178 C.3     1  UNL1        0.0949
     15 O           6.6985   -4.2694   26.1952 O.2     1  UNL1       -0.2748
     16 C           5.7874   -2.0637   28.2249 C.3     1  UNL1        0.1750
     17 S           4.9492    0.2390   33.6747 S.O2    1  UNL1        0.0112
     18 O           5.5145    1.5656   33.2614 O.2     1  UNL1       -0.1685
     19 O           4.3840   -1.0875   34.0879 O.2     1  UNL1       -0.1685
     20 C           4.7690    0.7514   35.0729 C.3     1  UNL1        0.1878
     21 C           4.8021   -0.2014   36.2309 C.3     1  UNL1        0.1680
     22 C           7.3631    0.1679   36.4659 C.3     1  UNL1        0.1742
     23 O           6.1067   -0.5309   36.8939 O.3     1  UNL1       -0.3492
     24 C           4.1167   -1.6768   24.6460 C.ar    1  UNL1        0.0503
     25 C           3.1189   -0.5861   24.3916 C.ar    1  UNL1        0.0144
     26 C           2.8625   -0.1160   22.9904 C.ar    1  UNL1       -0.0002
     27 C           3.6038   -0.7366   21.8436 C.ar    1  UNL1        0.0182
     28 C           4.6017   -1.8273   22.0980 C.ar    1  UNL1       -0.0002
     29 C           4.8581   -2.2974   23.4992 C.ar    1  UNL1        0.0144
     30 C           3.3474   -0.2665   20.4424 C.3     1  UNL1        0.2827
     31 O           3.6070    1.1478   20.8694 O.3     1  UNL1       -0.3692
     32 H           3.8193    1.1660   21.8157 H       1  UNL1        0.2112
     33 C           3.0910    0.2035   19.0413 C.3     1  UNL1        0.4311
     34 F           2.8346    0.6736   17.6401 F       1  UNL1       -0.1669
     35 F           1.6406    0.3966   19.3715 F       1  UNL1       -0.1669
     36 F           3.9227    0.1242   18.7469 F       1  UNL1       -0.1669
     37 C           3.0879   -1.6808   20.0155 C.3     1  UNL1        0.4311
     38 F           2.8283   -3.0952   19.5885 F       1  UNL1       -0.1669
     39 F           2.2696   -1.7457   20.3482 F       1  UNL1       -0.1669
     40 F           4.3488   -2.0843   19.3104 F       1  UNL1       -0.1669
@<TRIPOS>BOND
     1    22    23    1
     2    23    21    1
     3    21    20    1
     4    20    17    1
     5    17    18    2
     6    17    19    2
     7    17     5    1
     8     5     6   ar
     9     6     7   ar
    10     7     8   ar
    11     8     9   ar
    12     9    10   ar
    13     9    11    1
    14    11    12    1
    15    12    13   am
    16    13    14    1
    17    13    15    2
    18    12    16    1
    19    16     1    1
    20     1     2    2
    21     1     3   am
    22     3    24    1
    23    24    25   ar
    24    25    26   ar
    25    26    27   ar
    26    27    30    1
    27    30    31    1
    28    30    33    1
    29    33    34    1
    30    33    35    1
    31    33    36    1
    32    30    37    1
    33    37    38    1
    34    37    39    1
    35    37    40    1
    36    27    28   ar
    37    28    29   ar
    38    10     5   ar
    39    29    24   ar
    40    16     8    1
    41     3     4    1
    42    31    32    1
