@<TRIPOS>MOLECULE
*****
 32 35 0 0 0
SMALL
GASTEIGER

@<TRIPOS>ATOM
      1 C           6.8172   -2.1552   18.7919 C.2     1  UNL1        0.2551
      2 O           7.0297   -1.7580   17.3612 O.2     1  UNL1       -0.2694
      3 N           7.9732   -2.6410   19.6151 N.am    1  UNL1       -0.2738
      4 C           9.3417   -2.7297   19.0074 C.3     1  UNL1        0.1152
      5 C           7.7607   -3.0382   21.0458 C.3     1  UNL1        0.0972
      6 C           7.2921   -4.3788   21.5285 C.3     1  UNL1        0.0431
      7 C           7.2213   -4.3336   23.0261 C.3     1  UNL1        0.0968
      8 N           7.6462   -2.9650   23.4691 N.am    1  UNL1       -0.2623
      9 C           7.7241   -2.4818   24.8870 C.2     1  UNL1        0.3073
     10 O           8.1690   -1.0791   25.1780 O.2     1  UNL1       -0.2523
     11 N           7.3572   -3.4013   26.0139 N.am    1  UNL1       -0.2626
     12 C           6.8973   -4.8226   25.8780 C.3     1  UNL1        0.0964
     13 C           6.6416   -5.3606   27.2547 C.3     1  UNL1        0.0392
     14 C           6.9434   -4.2718   28.2414 C.3     1  UNL1        0.0792
     15 C           7.3856   -3.0609   27.4745 C.3     1  UNL1        0.1109
     16 C           7.9796   -2.1644   22.2453 C.3     1  UNL1        0.1147
     17 N           6.8239   -4.3757   29.7330 N.3     1  UNL1       -0.2699
     18 C           6.5115   -3.1553   30.5472 C.3     1  UNL1        0.0897
     19 C           7.0168   -5.7001   30.4104 C.3     1  UNL1        0.0897
     20 C           3.5487   -1.3132   20.7086 C.ar    1  UNL1        0.0296
     21 C           3.1367   -2.5465   19.9608 C.ar    1  UNL1        0.0071
     22 C           4.3109   -3.0121   19.1518 C.ar    1  UNL1        0.0115
     23 C           5.4486   -2.0665   19.3996 C.ar    1  UNL1        0.0830
     24 S           4.9775   -1.0165   20.3617 S.2     1  UNL1       -0.0824
     25 C           0.9537    1.0769   23.5020 C.ar    1  UNL1       -0.0222
     26 C           2.1185    0.3002   24.0405 C.ar    1  UNL1       -0.0043
     27 C           2.9835   -0.4965   23.1093 C.ar    1  UNL1        0.0002
     28 C           2.6837   -0.5165   21.6397 C.ar    1  UNL1        0.0060
     29 C           1.5189    0.2602   21.1013 C.ar    1  UNL1        0.0002
     30 C           0.6539    1.0569   22.0325 C.ar    1  UNL1       -0.0043
     31 C          -0.2253    1.3455   25.8015 C.3     1  UNL1        0.0050
     32 C           0.0887    1.8736   24.4332 C.3     1  UNL1        0.0264
@<TRIPOS>BOND
     1    31    32    1
     2    32    25    1
     3    25    26   ar
     4    26    27   ar
     5    27    28   ar
     6    28    20    1
     7    20    21   ar
     8    21    22   ar
     9    22    23   ar
    10    23     1    1
    11     1     2    2
    12     1     3   am
    13     3     4    1
    14     5     3    1
    15     5     6    1
    16     6     7    1
    17     7     8    1
    18     8     9   am
    19     9    10    2
    20     9    11   am
    21    11    12    1
    22    12    13    1
    23    13    14    1
    24    14    17    1
    25    17    18    1
    26    17    19    1
    27    14    15    1
    28     8    16    1
    29    23    24   ar
    30    28    29   ar
    31    29    30   ar
    32    30    25   ar
    33    24    20   ar
    34    16     5    1
    35    15    11    1
@<TRIPOS>MOLECULE
*****
 32 35 0 0 0
SMALL
GASTEIGER

@<TRIPOS>ATOM
      1 C          -0.9376    3.2804   23.8458 C.2     1  UNL1        0.2551
      2 O          -1.7217    3.9529   22.7581 O.2     1  UNL1       -0.2694
      3 N          -1.4577    3.2769   25.2527 N.am    1  UNL1       -0.2738
      4 C          -2.7616    3.9459   25.5720 C.3     1  UNL1        0.1152
      5 C          -0.6737    2.6044   26.3404 C.3     1  UNL1        0.0972
      6 C          -0.2378    1.1692   26.3548 C.3     1  UNL1        0.0431
      7 C           0.5174    0.9268   27.6279 C.3     1  UNL1        0.0968
      8 N           0.5483    2.2121   28.4005 N.am    1  UNL1       -0.2623
      9 C           1.2007    2.4236   29.7345 C.2     1  UNL1        0.3073
     10 O           1.1494    3.7723   30.3891 O.2     1  UNL1       -0.2523
     11 N           1.9044    1.2864   30.4139 N.am    1  UNL1       -0.2626
     12 C           2.0371   -0.1107   29.8844 C.3     1  UNL1        0.0964
     13 C           2.8137   -0.9139   30.8854 C.3     1  UNL1        0.0392
     14 C           3.1608   -0.0132   32.0335 C.3     1  UNL1        0.0792
     15 C           2.5988    1.3467   31.7421 C.3     1  UNL1        0.1109
     16 C          -0.1878    3.2490   27.6048 C.3     1  UNL1        0.1147
     17 N           3.9340   -0.4038   33.2580 N.3     1  UNL1       -0.2699
     18 C           4.3151   -1.8377   33.4786 C.3     1  UNL1        0.0897
     19 C           4.3262    0.6395   34.2619 C.3     1  UNL1        0.0897
     20 C           2.0041    1.0277   22.6895 C.ar    1  UNL1        0.0296
     21 C           2.7419    2.1360   23.3804 C.ar    1  UNL1        0.0071
     22 C           1.7297    3.1148   23.8976 C.ar    1  UNL1        0.0115
     23 C           0.3664    2.6114   23.5264 C.ar    1  UNL1        0.0830
     24 S           0.5360    1.3216   22.7798 S.2     1  UNL1       -0.0824
     25 C           3.8680   -2.5503   20.6962 C.ar    1  UNL1       -0.0222
     26 C           4.1725   -2.2493   22.1337 C.ar    1  UNL1       -0.0043
     27 C           3.5512   -1.0567   22.7982 C.ar    1  UNL1        0.0002
     28 C           2.6254   -0.1649   22.0251 C.ar    1  UNL1        0.0060
     29 C           2.3209   -0.4659   20.5875 C.ar    1  UNL1        0.0002
     30 C           2.9422   -1.6586   19.9230 C.ar    1  UNL1       -0.0043
     31 C           3.6449   -4.6635   19.2013 C.3     1  UNL1        0.0050
     32 C           4.4893   -3.7430   20.0317 C.3     1  UNL1        0.0264
@<TRIPOS>BOND
     1    31    32    1
     2    32    25    1
     3    25    26   ar
     4    26    27   ar
     5    27    28   ar
     6    28    20    1
     7    20    21   ar
     8    21    22   ar
     9    22    23   ar
    10    23     1    1
    11     1     2    2
    12     1     3   am
    13     3     4    1
    14     5     3    1
    15     5     6    1
    16     6     7    1
    17     7     8    1
    18     8     9   am
    19     9    10    2
    20     9    11   am
    21    11    12    1
    22    12    13    1
    23    13    14    1
    24    14    17    1
    25    17    18    1
    26    17    19    1
    27    14    15    1
    28     8    16    1
    29    23    24   ar
    30    28    29   ar
    31    29    30   ar
    32    30    25   ar
    33    24    20   ar
    34    16     5    1
    35    15    11    1
@<TRIPOS>MOLECULE
*****
 32 35 0 0 0
SMALL
GASTEIGER

@<TRIPOS>ATOM
      1 C           1.8928    5.3747   18.7551 C.2     1  UNL1        0.2551
      2 O           2.2783    6.1660   17.5405 O.2     1  UNL1       -0.2694
      3 N           1.7162    6.0650   20.0751 N.am    1  UNL1       -0.2738
      4 C           1.9252    7.5466   20.1804 C.3     1  UNL1        0.1152
      5 C           1.3307    5.2737   21.2896 C.3     1  UNL1        0.0972
      6 C          -0.0325    5.2237   21.9133 C.3     1  UNL1        0.0431
      7 C           0.0350    4.3125   23.1029 C.3     1  UNL1        0.0968
      8 N           1.4400    3.7992   23.2144 N.am    1  UNL1       -0.2623
      9 C           1.9540    2.8573   24.2626 C.2     1  UNL1        0.3073
     10 O           3.3917    2.4296   24.2465 O.2     1  UNL1       -0.2523
     11 N           1.0304    2.3432   25.3268 N.am    1  UNL1       -0.2626
     12 C          -0.4240    2.6807   25.4702 C.3     1  UNL1        0.0964
     13 C          -0.9543    1.9473   26.6665 C.3     1  UNL1        0.0392
     14 C           0.1725    1.1566   27.2623 C.3     1  UNL1        0.0792
     15 C           1.3991    1.4012   26.4344 C.3     1  UNL1        0.1109
     16 C           2.2408    4.3932   22.0938 C.3     1  UNL1        0.1147
     17 N           0.0875    0.2758   28.4736 N.3     1  UNL1       -0.2699
     18 C           1.3419   -0.2106   29.1367 C.3     1  UNL1        0.0897
     19 C          -1.2520   -0.1186   29.0216 C.3     1  UNL1        0.0897
     20 C           2.0980    1.5025   18.5829 C.ar    1  UNL1        0.0296
     21 C           0.6268    1.7236   18.3919 C.ar    1  UNL1        0.0071
     22 C           0.3708    3.2010   18.4331 C.ar    1  UNL1        0.0115
     23 C           1.6838    3.8931   18.6496 C.ar    1  UNL1        0.0830
     24 S           2.7513    2.8433   18.7422 S.2     1  UNL1       -0.0824
     25 C           4.1854   -2.4833   18.6639 C.ar    1  UNL1       -0.0222
     26 C           4.5471   -1.4683   17.6204 C.ar    1  UNL1       -0.0043
     27 C           3.8513   -0.1397   17.5934 C.ar    1  UNL1        0.0002
     28 C           2.7938    0.1739   18.6099 C.ar    1  UNL1        0.0060
     29 C           2.4321   -0.8410   19.6534 C.ar    1  UNL1        0.0002
     30 C           3.1279   -2.1696   19.6804 C.ar    1  UNL1       -0.0043
     31 C           4.1330   -5.0419   19.1119 C.3     1  UNL1        0.0050
     32 C           4.8811   -3.8118   18.6909 C.3     1  UNL1        0.0264
@<TRIPOS>BOND
     1    31    32    1
     2    32    25    1
     3    25    26   ar
     4    26    27   ar
     5    27    28   ar
     6    28    20    1
     7    20    21   ar
     8    21    22   ar
     9    22    23   ar
    10    23     1    1
    11     1     2    2
    12     1     3   am
    13     3     4    1
    14     5     3    1
    15     5     6    1
    16     6     7    1
    17     7     8    1
    18     8     9   am
    19     9    10    2
    20     9    11   am
    21    11    12    1
    22    12    13    1
    23    13    14    1
    24    14    17    1
    25    17    18    1
    26    17    19    1
    27    14    15    1
    28     8    16    1
    29    23    24   ar
    30    28    29   ar
    31    29    30   ar
    32    30    25   ar
    33    24    20   ar
    34    16     5    1
    35    15    11    1
@<TRIPOS>MOLECULE
*****
 32 35 0 0 0
SMALL
GASTEIGER

@<TRIPOS>ATOM
      1 C           5.8505   -1.8517   18.6284 C.2     1  UNL1        0.2551
      2 O           6.5824   -2.3817   17.4313 O.2     1  UNL1       -0.2694
      3 N           4.5667   -1.0967   18.4490 N.am    1  UNL1       -0.2738
      4 C           4.0150   -0.8719   17.0725 C.3     1  UNL1        0.1152
      5 C           3.8348   -0.5667   19.6462 C.3     1  UNL1        0.0972
      6 C           2.8249   -1.3150   20.4648 C.3     1  UNL1        0.0431
      7 C           2.3502   -0.4060   21.5595 C.3     1  UNL1        0.0968
      8 N           3.0667    0.9041   21.4176 N.am    1  UNL1       -0.2623
      9 C           2.8957    2.1030   22.3026 C.2     1  UNL1        0.3073
     10 O           3.6848    3.3505   22.0363 O.2     1  UNL1       -0.2523
     11 N           1.9356    2.0544   23.4541 N.am    1  UNL1       -0.2626
     12 C           1.0826    0.8830   23.8418 C.3     1  UNL1        0.0964
     13 C           0.2797    1.2733   25.0474 C.3     1  UNL1        0.0392
     14 C           0.6366    2.6857   25.4046 C.3     1  UNL1        0.0792
     15 C           1.6599    3.1685   24.4199 C.3     1  UNL1        0.1109
     16 C           3.9842    0.8048   20.2351 C.3     1  UNL1        0.1147
     17 N           0.0695    3.4766   26.5461 N.3     1  UNL1       -0.2699
     18 C           0.1420    2.9348   27.9429 C.3     1  UNL1        0.0897
     19 C          -0.5699    4.8092   26.2908 C.3     1  UNL1        0.0897
     20 C           7.0506   -3.1444   22.0859 C.ar    1  UNL1        0.0296
     21 C           7.4521   -1.7010   22.1608 C.ar    1  UNL1        0.0071
     22 C           7.0514   -1.0411   20.8747 C.ar    1  UNL1        0.0115
     23 C           6.4022   -2.0765   20.0050 C.ar    1  UNL1        0.0830
     24 S           6.4017   -3.3764   20.7536 S.2     1  UNL1       -0.0824
     25 C           7.6817   -6.2353   25.2949 C.ar    1  UNL1       -0.0222
     26 C           8.3250   -6.4074   23.9509 C.ar    1  UNL1       -0.0043
     27 C           8.1147   -5.3771   22.8812 C.ar    1  UNL1        0.0002
     28 C           7.2609   -4.1747   23.1556 C.ar    1  UNL1        0.0060
     29 C           6.6176   -4.0026   24.4996 C.ar    1  UNL1        0.0002
     30 C           6.8280   -5.0329   25.5693 C.ar    1  UNL1       -0.0043
     31 C           9.0355   -8.2310   26.2616 C.3     1  UNL1        0.0050
     32 C           7.8921   -7.2657   26.3646 C.3     1  UNL1        0.0264
@<TRIPOS>BOND
     1    31    32    1
     2    32    25    1
     3    25    26   ar
     4    26    27   ar
     5    27    28   ar
     6    28    20    1
     7    20    21   ar
     8    21    22   ar
     9    22    23   ar
    10    23     1    1
    11     1     2    2
    12     1     3   am
    13     3     4    1
    14     5     3    1
    15     5     6    1
    16     6     7    1
    17     7     8    1
    18     8     9   am
    19     9    10    2
    20     9    11   am
    21    11    12    1
    22    12    13    1
    23    13    14    1
    24    14    17    1
    25    17    18    1
    26    17    19    1
    27    14    15    1
    28     8    16    1
    29    23    24   ar
    30    28    29   ar
    31    29    30   ar
    32    30    25   ar
    33    24    20   ar
    34    16     5    1
    35    15    11    1
@<TRIPOS>MOLECULE
*****
 32 35 0 0 0
SMALL
GASTEIGER

@<TRIPOS>ATOM
      1 C          -2.3357    5.5546   20.6814 C.2     1  UNL1        0.2551
      2 O          -3.4172    6.5742   20.8831 O.2     1  UNL1       -0.2694
      3 N          -2.1171    4.9514   19.3255 N.am    1  UNL1       -0.2738
      4 C          -2.9799    5.3677   18.1715 C.3     1  UNL1        0.1152
      5 C          -1.0356    3.9318   19.1239 C.3     1  UNL1        0.0972
      6 C           0.1435    4.0668   18.2065 C.3     1  UNL1        0.0431
      7 C           0.9646    2.8165   18.3198 C.3     1  UNL1        0.0968
      8 N           0.2929    1.9088   19.3072 N.am    1  UNL1       -0.2623
      9 C           0.7731    0.5504   19.7244 C.2     1  UNL1        0.3073
     10 O          -0.0080   -0.2458   20.7274 O.2     1  UNL1       -0.2523
     11 N           2.0343   -0.0119   19.1386 N.am    1  UNL1       -0.2626
     12 C           2.9161    0.6640   18.1309 C.3     1  UNL1        0.0964
     13 C           4.0619   -0.2552   17.8271 C.3     1  UNL1        0.0392
     14 C           3.8882   -1.4991   18.6471 C.3     1  UNL1        0.0792
     15 C           2.6351   -1.3488   19.4576 C.3     1  UNL1        0.1109
     16 C          -0.9432    2.5980   19.8041 C.3     1  UNL1        0.1147
     17 N           4.8065   -2.6852   18.6550 N.3     1  UNL1       -0.2699
     18 C           4.2676   -4.0488   18.9714 C.3     1  UNL1        0.0897
     19 C           6.2637   -2.5076   18.3466 C.3     1  UNL1        0.0897
     20 C          -0.6691    4.0055   23.8259 C.ar    1  UNL1        0.0296
     21 C           0.3788    4.9895   23.3975 C.ar    1  UNL1        0.0071
     22 C          -0.1179    5.6896   22.1674 C.ar    1  UNL1        0.0115
     23 C          -1.4729    5.1383   21.8356 C.ar    1  UNL1        0.0830
     24 S          -1.8135    4.0974   22.8606 S.2     1  UNL1       -0.0824
     25 C          -0.4228    1.2597   27.3826 C.ar    1  UNL1       -0.0222
     26 C           0.6714    1.2580   26.3566 C.ar    1  UNL1       -0.0043
     27 C           0.5893    2.1733   25.1710 C.ar    1  UNL1        0.0002
     28 C          -0.5870    3.0902   25.0115 C.ar    1  UNL1        0.0060
     29 C          -1.6811    3.0919   26.0375 C.ar    1  UNL1        0.0002
     30 C          -1.5990    2.1767   27.2230 C.ar    1  UNL1       -0.0043
     31 C          -1.5946   -0.2144   29.1725 C.3     1  UNL1        0.0050
     32 C          -0.3407    0.3445   28.5682 C.3     1  UNL1        0.0264
@<TRIPOS>BOND
     1    31    32    1
     2    32    25    1
     3    25    26   ar
     4    26    27   ar
     5    27    28   ar
     6    28    20    1
     7    20    21   ar
     8    21    22   ar
     9    22    23   ar
    10    23     1    1
    11     1     2    2
    12     1     3   am
    13     3     4    1
    14     5     3    1
    15     5     6    1
    16     6     7    1
    17     7     8    1
    18     8     9   am
    19     9    10    2
    20     9    11   am
    21    11    12    1
    22    12    13    1
    23    13    14    1
    24    14    17    1
    25    17    18    1
    26    17    19    1
    27    14    15    1
    28     8    16    1
    29    23    24   ar
    30    28    29   ar
    31    29    30   ar
    32    30    25   ar
    33    24    20   ar
    34    16     5    1
    35    15    11    1
@<TRIPOS>MOLECULE
*****
 32 35 0 0 0
SMALL
GASTEIGER

@<TRIPOS>ATOM
      1 C           7.5043   -3.2559   28.5562 C.2     1  UNL1        0.2551
      2 O           7.8888   -4.0529   27.3451 O.2     1  UNL1       -0.2694
      3 N           7.9660   -3.6884   29.9163 N.am    1  UNL1       -0.2738
      4 C           8.8121   -4.9179   30.0652 C.3     1  UNL1        0.1152
      5 C           7.5815   -2.8913   31.1274 C.3     1  UNL1        0.0972
      6 C           8.4730   -1.9518   31.8841 C.3     1  UNL1        0.0431
      7 C           7.6805   -1.3736   33.0189 C.3     1  UNL1        0.0968
      8 N           6.2992   -1.9557   32.9635 N.am    1  UNL1       -0.2623
      9 C           5.1762   -1.6531   33.9107 C.2     1  UNL1        0.3073
     10 O           3.8426   -2.3153   33.7290 O.2     1  UNL1       -0.2523
     11 N           5.3868   -0.6881   35.0397 N.am    1  UNL1       -0.2626
     12 C           6.6580    0.0469   35.3456 C.3     1  UNL1        0.0964
     13 C           6.4200    0.9005   36.5560 C.3     1  UNL1        0.0392
     14 C           5.0017    0.6929   36.9980 C.3     1  UNL1        0.0792
     15 C           4.3631   -0.2889   36.0608 C.3     1  UNL1        0.1109
     16 C           6.2380   -2.8937   31.7945 C.3     1  UNL1        0.1147
     17 N           4.3385    1.3516   38.1711 N.3     1  UNL1       -0.2699
     18 C           2.9046    1.0478   38.4900 C.3     1  UNL1        0.0897
     19 C           5.1091    2.3141   39.0254 C.3     1  UNL1        0.0897
     20 C           4.7396   -0.5611   28.1558 C.ar    1  UNL1        0.0296
     21 C           5.9723    0.2926   28.2001 C.ar    1  UNL1        0.0071
     22 C           7.1579   -0.6130   28.3555 C.ar    1  UNL1        0.0115
     23 C           6.6581   -2.0263   28.4072 C.ar    1  UNL1        0.0830
     24 S           5.1636   -1.9942   28.2838 S.2     1  UNL1       -0.0824
     25 C           0.5124    0.9178   27.7160 C.ar    1  UNL1       -0.0222
     26 C           0.8675   -0.0168   28.8342 C.ar    1  UNL1       -0.0043
     27 C           2.2766   -0.5098   28.9808 C.ar    1  UNL1        0.0002
     28 C           3.3306   -0.0681   28.0092 C.ar    1  UNL1        0.0060
     29 C           2.9754    0.8665   26.8910 C.ar    1  UNL1        0.0002
     30 C           1.5664    1.3594   26.7444 C.ar    1  UNL1       -0.0043
     31 C          -1.1766    2.6606   26.7888 C.3     1  UNL1        0.0050
     32 C          -0.8967    1.4107   27.5695 C.3     1  UNL1        0.0264
@<TRIPOS>BOND
     1    31    32    1
     2    32    25    1
     3    25    26   ar
     4    26    27   ar
     5    27    28   ar
     6    28    20    1
     7    20    21   ar
     8    21    22   ar
     9    22    23   ar
    10    23     1    1
    11     1     2    2
    12     1     3   am
    13     3     4    1
    14     5     3    1
    15     5     6    1
    16     6     7    1
    17     7     8    1
    18     8     9   am
    19     9    10    2
    20     9    11   am
    21    11    12    1
    22    12    13    1
    23    13    14    1
    24    14    17    1
    25    17    18    1
    26    17    19    1
    27    14    15    1
    28     8    16    1
    29    23    24   ar
    30    28    29   ar
    31    29    30   ar
    32    30    25   ar
    33    24    20   ar
    34    16     5    1
    35    15    11    1
@<TRIPOS>MOLECULE
*****
 32 35 0 0 0
SMALL
GASTEIGER

@<TRIPOS>ATOM
      1 C           3.8224   -0.7037   17.6873 C.2     1  UNL1        0.2551
      2 O           3.9591   -1.0522   16.2348 O.2     1  UNL1       -0.2694
      3 N           4.3955   -1.6126   18.7339 N.am    1  UNL1       -0.2738
      4 C           5.1054   -2.8700   18.3279 C.3     1  UNL1        0.1152
      5 C           4.2588   -1.2641   20.1864 C.3     1  UNL1        0.0972
      6 C           3.0518   -1.5100   21.0423 C.3     1  UNL1        0.0431
      7 C           3.3522   -1.0063   22.4229 C.3     1  UNL1        0.0968
      8 N           4.7448   -0.4490   22.4203 N.am    1  UNL1       -0.2623
      9 C           5.4528    0.1605   23.5938 C.2     1  UNL1        0.3073
     10 O           6.8521    0.6782   23.4393 O.2     1  UNL1       -0.2523
     11 N           4.7615    0.2523   24.9218 N.am    1  UNL1       -0.2626
     12 C           3.3708   -0.2203   25.2264 C.3     1  UNL1        0.0964
     13 C           3.0893    0.0681   26.6713 C.3     1  UNL1        0.0392
     14 C           4.3060    0.7189   27.2596 C.3     1  UNL1        0.0792
     15 C           5.3394    0.8328   26.1784 C.3     1  UNL1        0.1109
     16 C           5.3052   -0.6084   21.0381 C.3     1  UNL1        0.1147
     17 N           4.4618    1.1757   28.6799 N.3     1  UNL1       -0.2699
     18 C           5.8234    1.2233   29.3073 C.3     1  UNL1        0.0897
     19 C           3.2559    1.5850   29.4726 C.3     1  UNL1        0.0897
     20 C           1.3626    2.1299   18.6802 C.ar    1  UNL1        0.0296
     21 C           2.6775    2.8479   18.7554 C.ar    1  UNL1        0.0071
     22 C           3.7590    1.8738   18.3926 C.ar    1  UNL1        0.0115
     23 C           3.1125    0.5538   18.0932 C.ar    1  UNL1        0.0830
     24 S           1.6315    0.7121   18.2709 S.2     1  UNL1       -0.0824
     25 C          -2.6789    3.9158   19.5327 C.ar    1  UNL1       -0.0222
     26 C          -2.0383    4.1160   18.1913 C.ar    1  UNL1       -0.0043
     27 C          -0.6911    3.5207   17.9071 C.ar    1  UNL1        0.0002
     28 C           0.0154    2.7252   18.9644 C.ar    1  UNL1        0.0060
     29 C          -0.6251    2.5250   20.3058 C.ar    1  UNL1        0.0002
     30 C          -1.9723    3.1203   20.5900 C.ar    1  UNL1       -0.0043
     31 C          -5.2616    3.6725   19.6753 C.3     1  UNL1        0.0050
     32 C          -4.0261    4.5111   19.8169 C.3     1  UNL1        0.0264
@<TRIPOS>BOND
     1    31    32    1
     2    32    25    1
     3    25    26   ar
     4    26    27   ar
     5    27    28   ar
     6    28    20    1
     7    20    21   ar
     8    21    22   ar
     9    22    23   ar
    10    23     1    1
    11     1     2    2
    12     1     3   am
    13     3     4    1
    14     5     3    1
    15     5     6    1
    16     6     7    1
    17     7     8    1
    18     8     9   am
    19     9    10    2
    20     9    11   am
    21    11    12    1
    22    12    13    1
    23    13    14    1
    24    14    17    1
    25    17    18    1
    26    17    19    1
    27    14    15    1
    28     8    16    1
    29    23    24   ar
    30    28    29   ar
    31    29    30   ar
    32    30    25   ar
    33    24    20   ar
    34    16     5    1
    35    15    11    1
@<TRIPOS>MOLECULE
*****
 32 35 0 0 0
SMALL
GASTEIGER

@<TRIPOS>ATOM
      1 C          -0.8058    4.2931   17.6027 C.2     1  UNL1        0.2551
      2 O          -1.0363    4.6349   16.1605 O.2     1  UNL1       -0.2694
      3 N          -1.8147    4.6923   18.6386 N.am    1  UNL1       -0.2738
      4 C          -3.0539    5.4331   18.2321 C.3     1  UNL1        0.1152
      5 C          -1.5842    4.3505   20.0808 C.3     1  UNL1        0.0972
      6 C          -2.2073    3.2080   20.8266 C.3     1  UNL1        0.0431
      7 C          -1.6984    3.2426   22.2373 C.3     1  UNL1        0.0968
      8 N          -0.7608    4.4066   22.3633 N.am    1  UNL1       -0.2623
      9 C          -0.0232    4.8144   23.6041 C.2     1  UNL1        0.3073
     10 O           0.8852    6.0078   23.5786 O.2     1  UNL1       -0.2523
     11 N          -0.1940    4.0288   24.8704 N.am    1  UNL1       -0.2626
     12 C          -1.0632    2.8191   25.0470 C.3     1  UNL1        0.0964
     13 C          -0.9320    2.3576   26.4682 C.3     1  UNL1        0.0392
     14 C           0.0183    3.2820   27.1699 C.3     1  UNL1        0.0792
     15 C           0.4744    4.3148   26.1824 C.3     1  UNL1        0.1109
     16 C          -0.6902    5.0914   21.0305 C.3     1  UNL1        0.1147
     17 N           0.4386    3.1897   28.6069 N.3     1  UNL1       -0.2699
     18 C           0.5378    1.8502   29.2747 C.3     1  UNL1        0.0897
     19 C           0.7598    4.4368   29.3759 C.3     1  UNL1        0.0897
     20 C           1.9581    1.7669   18.6246 C.ar    1  UNL1        0.0296
     21 C           2.7230    3.0571   18.6445 C.ar    1  UNL1        0.0071
     22 C           1.7807    4.1605   18.2641 C.ar    1  UNL1        0.0115
     23 C           0.4335    3.5522   18.0092 C.ar    1  UNL1        0.0830
     24 S           0.5432    2.0729   18.2320 S.2     1  UNL1       -0.0824
     25 C           3.6173   -2.3064   19.5759 C.ar    1  UNL1       -0.0222
     26 C           2.7710   -1.5871   20.5841 C.ar    1  UNL1       -0.0043
     27 C           2.2179   -0.2294   20.2670 C.ar    1  UNL1        0.0002
     28 C           2.5112    0.4091   18.9417 C.ar    1  UNL1        0.0060
     29 C           3.3575   -0.3102   17.9336 C.ar    1  UNL1        0.0002
     30 C           3.9105   -1.6679   18.2507 C.ar    1  UNL1       -0.0043
     31 C           4.3495   -4.6752   18.7996 C.3     1  UNL1        0.0050
     32 C           4.1703   -3.6642   19.8931 C.3     1  UNL1        0.0264
@<TRIPOS>BOND
     1    31    32    1
     2    32    25    1
     3    25    26   ar
     4    26    27   ar
     5    27    28   ar
     6    28    20    1
     7    20    21   ar
     8    21    22   ar
     9    22    23   ar
    10    23     1    1
    11     1     2    2
    12     1     3   am
    13     3     4    1
    14     5     3    1
    15     5     6    1
    16     6     7    1
    17     7     8    1
    18     8     9   am
    19     9    10    2
    20     9    11   am
    21    11    12    1
    22    12    13    1
    23    13    14    1
    24    14    17    1
    25    17    18    1
    26    17    19    1
    27    14    15    1
    28     8    16    1
    29    23    24   ar
    30    28    29   ar
    31    29    30   ar
    32    30    25   ar
    33    24    20   ar
    34    16     5    1
    35    15    11    1
@<TRIPOS>MOLECULE
*****
 32 35 0 0 0
SMALL
GASTEIGER

@<TRIPOS>ATOM
      1 C          -0.7516    4.2727   19.6615 C.2     1  UNL1        0.2551
      2 O          -1.8218    5.2948   19.4167 O.2     1  UNL1       -0.2694
      3 N          -0.2413    3.4345   18.5270 N.am    1  UNL1       -0.2738
      4 C          -0.8013    3.6185   17.1478 C.3     1  UNL1        0.1152
      5 C           0.8288    2.4124   18.7719 C.3     1  UNL1        0.0972
      6 C           0.6094    0.9898   19.1940 C.3     1  UNL1        0.0431
      7 C           1.9513    0.3316   19.3206 C.3     1  UNL1        0.0968
      8 N           3.0001    1.3473   18.9768 N.am    1  UNL1       -0.2623
      9 C           4.4824    1.1175   18.9728 C.2     1  UNL1        0.3073
     10 O           5.4136    2.2345   18.6052 O.2     1  UNL1       -0.2523
     11 N           5.0334   -0.2294   19.3363 N.am    1  UNL1       -0.2626
     12 C           4.2300   -1.4355   19.7235 C.3     1  UNL1        0.0964
     13 C           5.1847   -2.5582   20.0030 C.3     1  UNL1        0.0392
     14 C           6.5782   -2.0460   19.7885 C.3     1  UNL1        0.0792
     15 C           6.4847   -0.6067   19.3764 C.3     1  UNL1        0.1109
     16 C           2.3064    2.6333   18.6377 C.3     1  UNL1        0.1147
     17 N           7.8430   -2.8346   19.9565 N.3     1  UNL1       -0.2699
     18 C           9.0176   -2.5677   19.0626 C.3     1  UNL1        0.0897
     19 C           7.9332   -3.8902   21.0184 C.3     1  UNL1        0.0897
     20 C           0.0732    3.3915   23.3505 C.ar    1  UNL1        0.0296
     21 C           1.2665    4.2199   22.9766 C.ar    1  UNL1        0.0071
     22 C           1.1028    4.6508   21.5492 C.ar    1  UNL1        0.0115
     23 C          -0.1917    4.0888   21.0409 C.ar    1  UNL1        0.0830
     24 S          -0.8280    3.3105   22.1542 S.2     1  UNL1       -0.0824
     25 C          -0.6722    1.4844   27.3577 C.ar    1  UNL1       -0.0222
     26 C          -1.5991    2.5486   26.8495 C.ar    1  UNL1       -0.0043
     27 C          -1.3506    3.1843   25.5138 C.ar    1  UNL1        0.0002
     28 C          -0.1753    2.7558   24.6863 C.ar    1  UNL1        0.0060
     29 C           0.7516    1.6916   25.1944 C.ar    1  UNL1        0.0002
     30 C           0.5032    1.0559   26.5302 C.ar    1  UNL1       -0.0043
     31 C          -1.4259   -0.5615   28.7705 C.3     1  UNL1        0.0050
     32 C          -0.9207    0.8487   28.6934 C.3     1  UNL1        0.0264
@<TRIPOS>BOND
     1    31    32    1
     2    32    25    1
     3    25    26   ar
     4    26    27   ar
     5    27    28   ar
     6    28    20    1
     7    20    21   ar
     8    21    22   ar
     9    22    23   ar
    10    23     1    1
    11     1     2    2
    12     1     3   am
    13     3     4    1
    14     5     3    1
    15     5     6    1
    16     6     7    1
    17     7     8    1
    18     8     9   am
    19     9    10    2
    20     9    11   am
    21    11    12    1
    22    12    13    1
    23    13    14    1
    24    14    17    1
    25    17    18    1
    26    17    19    1
    27    14    15    1
    28     8    16    1
    29    23    24   ar
    30    28    29   ar
    31    29    30   ar
    32    30    25   ar
    33    24    20   ar
    34    16     5    1
    35    15    11    1
