@<TRIPOS>MOLECULE
*****
 25 27 0 0 0
SMALL
GASTEIGER

@<TRIPOS>ATOM
      1 C          -8.7468  -17.1098   22.5783 C.3     1  UNL1        0.0847
      2 N          -7.9622  -18.1360   21.8157 N.3     1  UNL1       -0.2676
      3 C          -6.5827  -18.5135   22.2678 C.3     1  UNL1        0.0896
      4 C          -5.7981  -19.5397   21.5054 C.3     1  UNL1        0.0862
      5 N          -6.3931  -20.1884   20.2908 N.3     1  UNL1       -0.2951
      6 C          -7.7726  -19.8109   19.8388 C.3     1  UNL1        0.0862
      7 C          -8.5572  -18.7847   20.6012 C.3     1  UNL1        0.0896
      8 H          -6.4064  -21.1924   20.4700 H       1  UNL1        0.1233
      9 C         -10.1809  -17.3720   22.9310 C.ar    1  UNL1       -0.0075
     10 C         -10.5228  -18.4093   23.9592 C.ar    1  UNL1       -0.0030
     11 C         -11.9570  -18.6715   24.3119 C.ar    1  UNL1       -0.0003
     12 C         -13.0493  -17.8965   23.6364 C.ar    1  UNL1       -0.0000
     13 C         -12.7074  -16.8592   22.6083 C.ar    1  UNL1       -0.0003
     14 C         -11.2733  -16.5970   22.2555 C.ar    1  UNL1       -0.0030
     15 C          -8.0972  -15.8214   22.9880 C.3     1  UNL1        0.0499
     16 C          -6.1145  -15.4279   24.6203 C.ar    1  UNL1        0.1403
     17 C          -5.5960  -15.2607   26.0179 C.ar    1  UNL1        0.0368
     18 C          -6.5417  -15.3196   27.1807 C.ar    1  UNL1        0.0031
     19 C          -8.0058  -15.5458   26.9460 C.ar    1  UNL1       -0.0001
     20 C          -8.5243  -15.7131   25.5485 C.ar    1  UNL1       -0.0012
     21 C          -7.5787  -15.6541   24.3856 C.ar    1  UNL1        0.0137
     22 O          -5.1689  -15.3690   23.4574 O.3     1  UNL1       -0.4240
     23 F          -4.0130  -17.5658   24.2242 F       1  UNL1       -0.1550
     24 C          -4.0182  -16.3279   23.3771 C.3     1  UNL1        0.5086
     25 F          -2.8727  -16.0489   22.4496 F       1  UNL1       -0.1550
@<TRIPOS>BOND
     1    23    24    1
     2    24    25    1
     3    24    22    1
     4    22    16    1
     5    16    17   ar
     6    17    18   ar
     7    18    19   ar
     8    19    20   ar
     9    20    21   ar
    10    21    15    1
    11    15     1    1
    12     1     9    1
    13     9    10   ar
    14    10    11   ar
    15    11    12   ar
    16    12    13   ar
    17    13    14   ar
    18     1     2    1
    19     2     3    1
    20     3     4    1
    21     4     5    1
    22     5     6    1
    23     6     7    1
    24    21    16   ar
    25    14     9   ar
    26     7     2    1
    27     5     8    1
@<TRIPOS>MOLECULE
*****
 25 27 0 0 0
SMALL
GASTEIGER

@<TRIPOS>ATOM
      1 C          -8.6616  -16.7176   23.3443 C.3     1  UNL1        0.0847
      2 N          -7.9610  -16.1557   24.5458 N.3     1  UNL1       -0.2676
      3 C          -8.6986  -16.0087   25.8436 C.3     1  UNL1        0.0896
      4 C          -7.9981  -15.4469   27.0450 C.3     1  UNL1        0.0862
      5 N          -6.5598  -15.0321   26.9486 N.3     1  UNL1       -0.2951
      6 C          -5.8222  -15.1791   25.6508 C.3     1  UNL1        0.0862
      7 C          -6.5227  -15.7409   24.4494 C.3     1  UNL1        0.0896
      8 H          -6.0486  -15.5789   27.6415 H       1  UNL1        0.1233
      9 C         -10.0871  -17.1719   23.4517 C.ar    1  UNL1       -0.0075
     10 C         -10.4165  -18.4434   24.1762 C.ar    1  UNL1       -0.0030
     11 C         -11.8421  -18.8977   24.2835 C.ar    1  UNL1       -0.0003
     12 C         -12.9382  -18.0805   23.6664 C.ar    1  UNL1       -0.0000
     13 C         -12.6087  -16.8091   22.9419 C.ar    1  UNL1       -0.0003
     14 C         -11.1833  -16.3548   22.8345 C.ar    1  UNL1       -0.0030
     15 C          -7.9367  -16.8252   22.0355 C.3     1  UNL1        0.0499
     16 C          -7.9108  -18.9390   20.5251 C.ar    1  UNL1        0.1403
     17 C          -7.2814  -20.2391   20.1210 C.ar    1  UNL1        0.0368
     18 C          -6.0486  -20.7258   20.8232 C.ar    1  UNL1        0.0031
     19 C          -5.4451  -19.9123   21.9295 C.ar    1  UNL1       -0.0001
     20 C          -6.0744  -18.6121   22.3336 C.ar    1  UNL1       -0.0012
     21 C          -7.3073  -18.1254   21.6314 C.ar    1  UNL1        0.0137
     22 O          -9.1438  -18.4522   19.8229 O.3     1  UNL1       -0.4240
     23 F         -11.7044  -18.0401   19.9746 F       1  UNL1       -0.1550
     24 C         -10.4993  -18.8662   20.3139 C.3     1  UNL1        0.5086
     25 F         -10.6497  -20.1063   21.1443 F       1  UNL1       -0.1550
@<TRIPOS>BOND
     1    23    24    1
     2    24    25    1
     3    24    22    1
     4    22    16    1
     5    16    17   ar
     6    17    18   ar
     7    18    19   ar
     8    19    20   ar
     9    20    21   ar
    10    21    15    1
    11    15     1    1
    12     1     9    1
    13     9    10   ar
    14    10    11   ar
    15    11    12   ar
    16    12    13   ar
    17    13    14   ar
    18     1     2    1
    19     2     3    1
    20     3     4    1
    21     4     5    1
    22     5     6    1
    23     6     7    1
    24    21    16   ar
    25    14     9   ar
    26     7     2    1
    27     5     8    1
@<TRIPOS>MOLECULE
*****
 25 27 0 0 0
SMALL
GASTEIGER

@<TRIPOS>ATOM
      1 C          -8.6391  -17.0570   22.4435 C.3     1  UNL1        0.0847
      2 N         -10.1086  -17.2137   22.7009 N.3     1  UNL1       -0.2676
      3 C         -10.5964  -18.2785   23.6380 C.3     1  UNL1        0.0896
      4 C         -12.0658  -18.4353   23.8954 C.3     1  UNL1        0.0862
      5 N         -13.0473  -17.5272   23.2157 N.3     1  UNL1       -0.2951
      6 C         -12.5595  -16.4624   22.2786 C.3     1  UNL1        0.0862
      7 C         -11.0901  -16.3057   22.0212 C.3     1  UNL1        0.0896
      8 H         -13.5699  -17.0539   23.9528 H       1  UNL1        0.1233
      9 C          -7.8760  -18.1535   21.7614 C.ar    1  UNL1       -0.0075
     10 C          -8.4445  -18.8164   20.5418 C.ar    1  UNL1       -0.0030
     11 C          -7.6813  -19.9130   19.8597 C.ar    1  UNL1       -0.0003
     12 C          -6.3498  -20.3466   20.3972 C.ar    1  UNL1       -0.0000
     13 C          -5.7814  -19.6837   21.6168 C.ar    1  UNL1       -0.0003
     14 C          -6.5444  -18.5872   22.2989 C.ar    1  UNL1       -0.0030
     15 C          -7.9328  -15.8037   22.8682 C.3     1  UNL1        0.0499
     16 C          -5.9997  -15.4410   24.5657 C.ar    1  UNL1        0.1403
     17 C          -5.5242  -15.2908   25.9803 C.ar    1  UNL1        0.0368
     18 C          -6.5064  -15.3529   27.1122 C.ar    1  UNL1        0.0031
     19 C          -7.9642  -15.5652   26.8295 C.ar    1  UNL1       -0.0001
     20 C          -8.4396  -15.7155   25.4148 C.ar    1  UNL1       -0.0012
     21 C          -7.4574  -15.6534   24.2829 C.ar    1  UNL1        0.0137
     22 O          -5.0174  -15.3790   23.4337 O.3     1  UNL1       -0.4240
     23 F          -2.7644  -16.1657   22.4064 F       1  UNL1       -0.1550
     24 C          -3.9167  -16.3937   23.3393 C.3     1  UNL1        0.5086
     25 F          -3.9684  -17.6364   24.1778 F       1  UNL1       -0.1550
@<TRIPOS>BOND
     1    23    24    1
     2    24    25    1
     3    24    22    1
     4    22    16    1
     5    16    17   ar
     6    17    18   ar
     7    18    19   ar
     8    19    20   ar
     9    20    21   ar
    10    21    15    1
    11    15     1    1
    12     1     9    1
    13     9    10   ar
    14    10    11   ar
    15    11    12   ar
    16    12    13   ar
    17    13    14   ar
    18     1     2    1
    19     2     3    1
    20     3     4    1
    21     4     5    1
    22     5     6    1
    23     6     7    1
    24    21    16   ar
    25    14     9   ar
    26     7     2    1
    27     5     8    1
@<TRIPOS>MOLECULE
*****
 25 27 0 0 0
SMALL
GASTEIGER

@<TRIPOS>ATOM
      1 C          -6.0856  -18.6743   22.3300 C.3     1  UNL1        0.0847
      2 N          -6.3145  -17.3301   22.9553 N.3     1  UNL1       -0.2676
      3 C          -7.6661  -16.6848   22.8725 C.3     1  UNL1        0.0896
      4 C          -7.8950  -15.3407   23.4978 C.3     1  UNL1        0.0862
      5 N          -6.7723  -14.6419   24.2057 N.3     1  UNL1       -0.2951
      6 C          -5.4207  -15.2873   24.2885 C.3     1  UNL1        0.0862
      7 C          -5.1918  -16.6313   23.6632 C.3     1  UNL1        0.0896
      8 H          -7.0821  -14.4835   25.1646 H       1  UNL1        0.1233
      9 C          -4.8073  -18.9523   21.5962 C.ar    1  UNL1       -0.0075
     10 C          -4.7802  -18.9170   20.0968 C.ar    1  UNL1       -0.0030
     11 C          -3.5017  -19.1950   19.3631 C.ar    1  UNL1       -0.0003
     12 C          -2.2505  -19.5082   20.1286 C.ar    1  UNL1       -0.0000
     13 C          -2.2775  -19.5435   21.6280 C.ar    1  UNL1       -0.0003
     14 C          -3.5559  -19.2655   22.3617 C.ar    1  UNL1       -0.0030
     15 C          -7.1352  -19.7404   22.4385 C.3     1  UNL1        0.0499
     16 C          -9.7328  -19.6935   22.4174 C.ar    1  UNL1        0.1403
     17 C         -11.0234  -19.5546   21.6659 C.ar    1  UNL1        0.0368
     18 C         -11.0072  -19.3238   20.1839 C.ar    1  UNL1        0.0031
     19 C          -9.7004  -19.2318   19.4534 C.ar    1  UNL1       -0.0001
     20 C          -8.4097  -19.3707   20.2049 C.ar    1  UNL1       -0.0012
     21 C          -8.4259  -19.6015   21.6869 C.ar    1  UNL1        0.0137
     22 O          -9.7489  -19.9243   23.8995 O.3     1  UNL1       -0.4240
     23 F         -11.8628  -18.7179   24.8084 F       1  UNL1       -0.1550
     24 C         -10.3751  -18.9098   24.8098 C.3     1  UNL1        0.5086
     25 F          -9.5136  -18.0871   25.7214 F       1  UNL1       -0.1550
@<TRIPOS>BOND
     1    23    24    1
     2    24    25    1
     3    24    22    1
     4    22    16    1
     5    16    17   ar
     6    17    18   ar
     7    18    19   ar
     8    19    20   ar
     9    20    21   ar
    10    21    15    1
    11    15     1    1
    12     1     9    1
    13     9    10   ar
    14    10    11   ar
    15    11    12   ar
    16    12    13   ar
    17    13    14   ar
    18     1     2    1
    19     2     3    1
    20     3     4    1
    21     4     5    1
    22     5     6    1
    23     6     7    1
    24    21    16   ar
    25    14     9   ar
    26     7     2    1
    27     5     8    1
@<TRIPOS>MOLECULE
*****
 25 27 0 0 0
SMALL
GASTEIGER

@<TRIPOS>ATOM
      1 C          -8.9512  -17.7787   23.5455 C.3     1  UNL1        0.0847
      2 N          -8.1195  -16.7456   24.2462 N.3     1  UNL1       -0.2676
      3 C          -6.8870  -16.2015   23.5868 C.3     1  UNL1        0.0896
      4 C          -6.0553  -15.1684   24.2875 C.3     1  UNL1        0.0862
      5 N          -6.4562  -14.6794   25.6476 N.3     1  UNL1       -0.2951
      6 C          -7.6886  -15.2235   26.3071 C.3     1  UNL1        0.0862
      7 C          -8.5203  -16.2566   25.6064 C.3     1  UNL1        0.0896
      8 H          -6.5838  -13.6703   25.5719 H       1  UNL1        0.1233
      9 C         -10.4457  -17.6526   23.5279 C.ar    1  UNL1       -0.0075
     10 C         -11.0982  -16.5785   22.7089 C.ar    1  UNL1       -0.0030
     11 C         -12.5928  -16.4524   22.6913 C.ar    1  UNL1       -0.0003
     12 C         -13.4349  -17.4004   23.4927 C.ar    1  UNL1       -0.0000
     13 C         -12.7825  -18.4744   24.3116 C.ar    1  UNL1       -0.0003
     14 C         -11.2879  -18.6005   24.3292 C.ar    1  UNL1       -0.0030
     15 C          -8.2882  -18.9379   22.8623 C.3     1  UNL1        0.0499
     16 C          -7.5547  -19.1999   20.3837 C.ar    1  UNL1        0.1403
     17 C          -7.8888  -19.5207   18.9571 C.ar    1  UNL1        0.0368
     18 C          -9.2907  -19.9004   18.5823 C.ar    1  UNL1        0.0031
     19 C         -10.3585  -19.9592   19.6342 C.ar    1  UNL1       -0.0001
     20 C         -10.0243  -19.6384   21.0608 C.ar    1  UNL1       -0.0012
     21 C          -8.6224  -19.2588   21.4356 C.ar    1  UNL1        0.0137
     22 O          -6.1527  -18.8203   20.7586 O.3     1  UNL1       -0.4240
     23 F          -3.8668  -18.7325   19.5270 F       1  UNL1       -0.1550
     24 C          -4.9900  -19.5259   20.1260 C.3     1  UNL1        0.5086
     25 F          -4.9506  -21.0251   20.0924 F       1  UNL1       -0.1550
@<TRIPOS>BOND
     1    23    24    1
     2    24    25    1
     3    24    22    1
     4    22    16    1
     5    16    17   ar
     6    17    18   ar
     7    18    19   ar
     8    19    20   ar
     9    20    21   ar
    10    21    15    1
    11    15     1    1
    12     1     9    1
    13     9    10   ar
    14    10    11   ar
    15    11    12   ar
    16    12    13   ar
    17    13    14   ar
    18     1     2    1
    19     2     3    1
    20     3     4    1
    21     4     5    1
    22     5     6    1
    23     6     7    1
    24    21    16   ar
    25    14     9   ar
    26     7     2    1
    27     5     8    1
@<TRIPOS>MOLECULE
*****
 25 27 0 0 0
SMALL
GASTEIGER

@<TRIPOS>ATOM
      1 C          -7.7336  -16.8155   23.0419 C.3     1  UNL1        0.0847
      2 N          -6.9173  -17.8396   22.3106 N.3     1  UNL1       -0.2676
      3 C          -5.5329  -18.1719   22.7829 C.3     1  UNL1        0.0896
      4 C          -4.7165  -19.1960   22.0517 C.3     1  UNL1        0.0862
      5 N          -5.2846  -19.8878   20.8481 N.3     1  UNL1       -0.2951
      6 C          -6.6690  -19.5556   20.3758 C.3     1  UNL1        0.0862
      7 C          -7.4853  -18.5315   21.1070 C.3     1  UNL1        0.0896
      8 H          -5.2747  -20.8874   21.0510 H       1  UNL1        0.1233
      9 C          -7.2292  -16.2344   24.3295 C.ar    1  UNL1       -0.0075
     10 C          -5.8348  -15.6875   24.4102 C.ar    1  UNL1       -0.0030
     11 C          -5.3305  -15.1064   25.6978 C.ar    1  UNL1       -0.0003
     12 C          -6.2205  -15.0722   26.9047 C.ar    1  UNL1       -0.0000
     13 C          -7.6149  -15.6191   26.8241 C.ar    1  UNL1       -0.0003
     14 C          -8.1193  -16.2002   25.5365 C.ar    1  UNL1       -0.0030
     15 C          -9.0543  -16.3725   22.4856 C.3     1  UNL1        0.0499
     16 C         -11.6236  -16.6976   22.2780 C.ar    1  UNL1        0.1403
     17 C         -12.8890  -17.3657   22.7279 C.ar    1  UNL1        0.0368
     18 C         -12.8506  -18.3766   23.8354 C.ar    1  UNL1        0.0031
     19 C         -11.5467  -18.7195   24.4929 C.ar    1  UNL1       -0.0001
     20 C         -10.2813  -18.0515   24.0430 C.ar    1  UNL1       -0.0012
     21 C         -10.3198  -17.0406   22.9356 C.ar    1  UNL1        0.0137
     22 O         -11.6620  -15.6866   21.1705 O.3     1  UNL1       -0.4240
     23 F         -11.0127  -15.1000   18.7243 F       1  UNL1       -0.1550
     24 C         -11.4096  -16.1147   19.7552 C.3     1  UNL1        0.5086
     25 F         -11.5541  -17.5574   19.3709 F       1  UNL1       -0.1550
@<TRIPOS>BOND
     1    23    24    1
     2    24    25    1
     3    24    22    1
     4    22    16    1
     5    16    17   ar
     6    17    18   ar
     7    18    19   ar
     8    19    20   ar
     9    20    21   ar
    10    21    15    1
    11    15     1    1
    12     1     9    1
    13     9    10   ar
    14    10    11   ar
    15    11    12   ar
    16    12    13   ar
    17    13    14   ar
    18     1     2    1
    19     2     3    1
    20     3     4    1
    21     4     5    1
    22     5     6    1
    23     6     7    1
    24    21    16   ar
    25    14     9   ar
    26     7     2    1
    27     5     8    1
@<TRIPOS>MOLECULE
*****
 25 27 0 0 0
SMALL
GASTEIGER

@<TRIPOS>ATOM
      1 C          -8.8844  -16.6584   23.3659 C.3     1  UNL1        0.0847
      2 N          -8.1360  -16.1245   24.5512 N.3     1  UNL1       -0.2676
      3 C          -8.8495  -15.9057   25.8524 C.3     1  UNL1        0.0896
      4 C          -8.1012  -15.3719   27.0377 C.3     1  UNL1        0.0862
      5 N          -6.6392  -15.0569   26.9218 N.3     1  UNL1       -0.2951
      6 C          -5.9257  -15.2757   25.6207 C.3     1  UNL1        0.0862
      7 C          -6.6740  -15.8095   24.4354 C.3     1  UNL1        0.0896
      8 H          -6.1594  -15.6251   27.6199 H       1  UNL1        0.1233
      9 C         -10.3032  -17.1200   23.5205 C.ar    1  UNL1       -0.0075
     10 C         -10.6035  -18.3817   24.2741 C.ar    1  UNL1       -0.0030
     11 C         -12.0224  -18.8433   24.4287 C.ar    1  UNL1       -0.0003
     12 C         -13.1409  -18.0431   23.8297 C.ar    1  UNL1       -0.0000
     13 C         -12.8405  -16.7814   23.0762 C.ar    1  UNL1       -0.0003
     14 C         -11.4218  -16.3198   22.9216 C.ar    1  UNL1       -0.0030
     15 C          -8.2140  -16.7306   22.0260 C.3     1  UNL1        0.0499
     16 C          -7.5018  -18.8015   20.6281 C.ar    1  UNL1        0.1403
     17 C          -7.8478  -19.9068   19.6750 C.ar    1  UNL1        0.0368
     18 C          -9.2520  -20.0466   19.1666 C.ar    1  UNL1        0.0031
     19 C         -10.3103  -19.0811   19.6113 C.ar    1  UNL1       -0.0001
     20 C          -9.9643  -17.9758   20.5645 C.ar    1  UNL1       -0.0012
     21 C          -8.5601  -17.8360   21.0728 C.ar    1  UNL1        0.0137
     22 O          -6.0975  -18.6617   21.1365 O.3     1  UNL1       -0.4240
     23 F          -6.3526  -20.8856   22.4552 F       1  UNL1       -0.1550
     24 C          -5.5315  -19.6912   22.0690 C.3     1  UNL1        0.5086
     25 F          -4.1442  -19.5264   22.6155 F       1  UNL1       -0.1550
@<TRIPOS>BOND
     1    23    24    1
     2    24    25    1
     3    24    22    1
     4    22    16    1
     5    16    17   ar
     6    17    18   ar
     7    18    19   ar
     8    19    20   ar
     9    20    21   ar
    10    21    15    1
    11    15     1    1
    12     1     9    1
    13     9    10   ar
    14    10    11   ar
    15    11    12   ar
    16    12    13   ar
    17    13    14   ar
    18     1     2    1
    19     2     3    1
    20     3     4    1
    21     4     5    1
    22     5     6    1
    23     6     7    1
    24    21    16   ar
    25    14     9   ar
    26     7     2    1
    27     5     8    1
@<TRIPOS>MOLECULE
*****
 25 27 0 0 0
SMALL
GASTEIGER

@<TRIPOS>ATOM
      1 C          -8.0764  -17.7246   22.1757 C.3     1  UNL1        0.0847
      2 N          -7.9520  -16.8432   23.3830 N.3     1  UNL1       -0.2676
      3 C          -8.6753  -17.1979   24.6483 C.3     1  UNL1        0.0896
      4 C          -8.5509  -16.3165   25.8556 C.3     1  UNL1        0.0862
      5 N          -7.7032  -15.0804   25.7977 N.3     1  UNL1       -0.2951
      6 C          -6.9799  -14.7257   24.5324 C.3     1  UNL1        0.0862
      7 C          -7.1043  -15.6071   23.3250 C.3     1  UNL1        0.0896
      8 H          -6.9946  -15.1749   26.5253 H       1  UNL1        0.1233
      9 C          -6.9475  -18.6346   21.7918 C.ar    1  UNL1       -0.0075
     10 C          -5.6089  -18.4892   22.4530 C.ar    1  UNL1       -0.0030
     11 C          -4.4799  -19.3992   22.0691 C.ar    1  UNL1       -0.0003
     12 C          -4.6895  -20.4546   21.0241 C.ar    1  UNL1       -0.0000
     13 C          -6.0281  -20.6001   20.3630 C.ar    1  UNL1       -0.0003
     14 C          -7.1570  -19.6901   20.7468 C.ar    1  UNL1       -0.0030
     15 C          -9.3298  -17.6961   21.3522 C.3     1  UNL1        0.0499
     16 C         -11.2907  -18.7074   22.7242 C.ar    1  UNL1        0.1403
     17 C         -12.6241  -18.5517   23.3932 C.ar    1  UNL1        0.0368
     18 C         -13.3303  -17.2288   23.3593 C.ar    1  UNL1        0.0031
     19 C         -12.7029  -16.0616   22.6563 C.ar    1  UNL1       -0.0001
     20 C         -11.3695  -16.2173   21.9873 C.ar    1  UNL1       -0.0012
     21 C         -10.6634  -17.5403   22.0212 C.ar    1  UNL1        0.0137
     22 O         -10.5845  -20.0304   22.7582 O.3     1  UNL1       -0.4240
     23 F         -10.1955  -20.0789   25.3265 F       1  UNL1       -0.1550
     24 C          -9.7298  -20.3943   23.9360 C.3     1  UNL1        0.5086
     25 F          -8.4095  -21.0737   23.7231 F       1  UNL1       -0.1550
@<TRIPOS>BOND
     1    23    24    1
     2    24    25    1
     3    24    22    1
     4    22    16    1
     5    16    17   ar
     6    17    18   ar
     7    18    19   ar
     8    19    20   ar
     9    20    21   ar
    10    21    15    1
    11    15     1    1
    12     1     9    1
    13     9    10   ar
    14    10    11   ar
    15    11    12   ar
    16    12    13   ar
    17    13    14   ar
    18     1     2    1
    19     2     3    1
    20     3     4    1
    21     4     5    1
    22     5     6    1
    23     6     7    1
    24    21    16   ar
    25    14     9   ar
    26     7     2    1
    27     5     8    1
@<TRIPOS>MOLECULE
*****
 25 27 0 0 0
SMALL
GASTEIGER

@<TRIPOS>ATOM
      1 C          -7.7257  -17.2094   22.4530 C.3     1  UNL1        0.0847
      2 N          -6.6580  -18.1393   21.9576 N.3     1  UNL1       -0.2676
      3 C          -5.3923  -18.3145   22.7432 C.3     1  UNL1        0.0896
      4 C          -4.3246  -19.2443   22.2478 C.3     1  UNL1        0.0862
      5 N          -4.5227  -19.9990   20.9668 N.3     1  UNL1       -0.2951
      6 C          -5.7885  -19.8239   20.1811 C.3     1  UNL1        0.0862
      7 C          -6.8561  -18.8940   20.6765 C.3     1  UNL1        0.0896
      8 H          -4.4529  -20.9906   21.1954 H       1  UNL1        0.1233
      9 C          -7.6199  -16.6082   23.8231 C.ar    1  UNL1       -0.0075
     10 C          -8.6424  -16.9407   24.8691 C.ar    1  UNL1       -0.0030
     11 C          -8.5366  -16.3394   26.2393 C.ar    1  UNL1       -0.0003
     12 C          -7.4083  -15.4056   26.5634 C.ar    1  UNL1       -0.0000
     13 C          -6.3859  -15.0731   25.5175 C.ar    1  UNL1       -0.0003
     14 C          -6.4916  -15.6744   24.1474 C.ar    1  UNL1       -0.0030
     15 C          -8.8991  -16.8808   21.5783 C.3     1  UNL1        0.0499
     16 C         -10.7811  -18.4696   22.4054 C.ar    1  UNL1        0.1403
     17 C         -12.1769  -18.6754   22.9145 C.ar    1  UNL1        0.0368
     18 C         -13.0867  -17.4982   23.1057 C.ar    1  UNL1        0.0031
     19 C         -12.6006  -16.1153   22.7877 C.ar    1  UNL1       -0.0001
     20 C         -11.2048  -15.9094   22.2786 C.ar    1  UNL1       -0.0012
     21 C         -10.2950  -17.0866   22.0874 C.ar    1  UNL1        0.0137
     22 O          -9.8712  -19.6468   22.2143 O.3     1  UNL1       -0.4240
     23 F          -9.9480  -20.3880   24.7032 F       1  UNL1       -0.1550
     24 C          -9.2115  -20.2852   23.4005 C.3     1  UNL1        0.5086
     25 F          -7.8152  -20.8208   23.2841 F       1  UNL1       -0.1550
@<TRIPOS>BOND
     1    23    24    1
     2    24    25    1
     3    24    22    1
     4    22    16    1
     5    16    17   ar
     6    17    18   ar
     7    18    19   ar
     8    19    20   ar
     9    20    21   ar
    10    21    15    1
    11    15     1    1
    12     1     9    1
    13     9    10   ar
    14    10    11   ar
    15    11    12   ar
    16    12    13   ar
    17    13    14   ar
    18     1     2    1
    19     2     3    1
    20     3     4    1
    21     4     5    1
    22     5     6    1
    23     6     7    1
    24    21    16   ar
    25    14     9   ar
    26     7     2    1
    27     5     8    1
