@<TRIPOS>MOLECULE
*****
 37 38 0 0 0
SMALL
GASTEIGER

@<TRIPOS>ATOM
      1 C          -9.0375  -19.5186   22.7335 C.ar    1  UNL1        0.1762
      2 N          -8.7646  -20.5916   23.7455 N.ar    1  UNL1       -0.0417
      3 O          -9.7963  -20.4803   24.8287 O.2     1  UNL1       -0.2408
      4 N         -10.7067  -19.3385   24.4861 N.ar    1  UNL1       -0.0399
      5 C         -10.2378  -18.7441   23.1912 C.ar    1  UNL1        0.2348
      6 C         -10.8599  -17.5797   22.4790 C.2     1  UNL1        0.3935
      7 N         -11.9013  -17.8145   21.4252 N.2     1  UNL1        0.1538
      8 O         -12.5234  -16.6501   20.7130 O.2     1  UNL1       -0.3110
      9 H         -13.1739  -16.7967   20.0548 H       1  UNL1        0.3605
     10 N         -10.4406  -16.1806   22.8205 N.pl3   1  UNL1       -0.1943
     11 H         -11.0170  -15.4206   22.5768 H       1  UNL1        0.2987
     12 C          -9.1430  -15.9394   23.5334 C.ar    1  UNL1        0.1358
     13 C          -7.8686  -15.8200   22.7515 C.ar    1  UNL1        0.0424
     14 C          -6.5711  -15.5788   23.4644 C.ar    1  UNL1        0.0330
     15 C          -6.5480  -15.4570   24.9592 C.ar    1  UNL1        0.1416
     16 F          -5.2504  -15.2158   25.6721 F       1  UNL1       -0.2043
     17 C          -7.8225  -15.5764   25.7412 C.ar    1  UNL1        0.0744
     18 C          -9.1200  -15.8176   25.0283 C.ar    1  UNL1        0.0435
     19 C          -7.7994  -15.4546   27.2361 C.3     1  UNL1        0.3433
     20 F          -6.7716  -16.2013   28.0336 F       1  UNL1       -0.1932
     21 F          -8.8040  -14.5860   27.9333 F       1  UNL1       -0.1932
     22 S          -8.2486  -19.2647   21.4833 S.3     1  UNL1       -0.0881
     23 C          -6.8348  -19.7541   21.3761 C.3     1  UNL1        0.0850
     24 C          -5.7738  -19.1837   22.2700 C.3     1  UNL1        0.1015
     25 C          -3.5909  -17.8074   22.5714 C.2     1  UNL1        0.2403
     26 O          -3.7515  -17.8789   24.0610 O.2     1  UNL1       -0.2735
     27 N          -4.6021  -18.4598   21.6758 N.am    1  UNL1       -0.3023
     28 H          -4.4967  -18.4128   20.6981 H       1  UNL1        0.1495
     29 C          -2.4192  -17.0834   21.9772 C.3     1  UNL1        0.1770
     30 N          -1.3487  -17.8510   21.2597 N.3     1  UNL1       -0.1603
     31 H          -0.4548  -17.4720   21.5723 H       1  UNL1        0.1504
     32 N          -1.2765  -17.8780   18.2607 N.3     1  UNL1       -0.1934
     33 S          -1.3126  -17.8645   19.7602 S.O2    1  UNL1        0.0931
     34 O          -2.5509  -17.0188   19.7227 O.2     1  UNL1       -0.1415
     35 O          -0.0743  -18.7102   19.7977 O.2     1  UNL1       -0.1415
     36 H          -0.4744  -18.4233   17.9448 H       1  UNL1        0.1453
     37 H          -1.1957  -16.9222   17.9139 H       1  UNL1        0.1453
@<TRIPOS>BOND
     1    32    33    1
     2    33    34    2
     3    33    35    2
     4    33    30    1
     5    30    29    1
     6    29    25    1
     7    25    26    2
     8    25    27   am
     9    27    24    1
    10    24    23    1
    11    23    22    1
    12    22     1    1
    13     1     2   ar
    14     2     3   ar
    15     3     4   ar
    16     4     5   ar
    17     5     6    1
    18     6     7    2
    19     7     8    1
    20     6    10    1
    21    10    12    1
    22    12    13   ar
    23    13    14   ar
    24    14    15   ar
    25    15    16    1
    26    15    17   ar
    27    17    19    1
    28    19    20    1
    29    19    21    1
    30    17    18   ar
    31     5     1   ar
    32    18    12   ar
    33    32    36    1
    34    32    37    1
    35    30    31    1
    36    27    28    1
    37     8     9    1
    38    10    11    1
@<TRIPOS>MOLECULE
*****
 37 38 0 0 0
SMALL
GASTEIGER

@<TRIPOS>ATOM
      1 C         -11.3335  -18.0839   20.4762 C.ar    1  UNL1        0.1762
      2 N         -11.6724  -17.1676   19.3380 N.ar    1  UNL1       -0.0417
      3 O         -12.4449  -16.0071   19.8915 O.2     1  UNL1       -0.2408
      4 N         -12.5834  -16.2061   21.3718 N.ar    1  UNL1       -0.0399
      5 C         -11.8965  -17.4897   21.7332 C.ar    1  UNL1        0.2348
      6 C         -11.7911  -18.0760   23.1098 C.2     1  UNL1        0.3935
      7 N         -13.0165  -18.2075   23.9648 N.2     1  UNL1        0.1538
      8 O         -12.9111  -18.7939   25.3415 O.2     1  UNL1       -0.3110
      9 H         -13.6766  -18.8760   25.8756 H       1  UNL1        0.3605
     10 N         -10.4603  -18.5309   23.6314 N.pl3   1  UNL1       -0.1943
     11 H         -10.2828  -19.4911   23.7566 H       1  UNL1        0.2987
     12 C          -9.4000  -17.5228   23.9621 C.ar    1  UNL1        0.1358
     13 C          -8.5544  -16.9379   22.8700 C.ar    1  UNL1        0.0424
     14 C          -7.4941  -15.9297   23.2007 C.ar    1  UNL1        0.0330
     15 C          -7.2793  -15.5066   24.6236 C.ar    1  UNL1        0.1416
     16 F          -6.2190  -14.4984   24.9544 F       1  UNL1       -0.2043
     17 C          -8.1249  -16.0915   25.7159 C.ar    1  UNL1        0.0744
     18 C          -9.1852  -17.0996   25.3851 C.ar    1  UNL1        0.0435
     19 C          -7.9101  -15.6683   27.1388 C.3     1  UNL1        0.3433
     20 F          -8.8368  -14.6742   27.7737 F       1  UNL1       -0.1932
     21 F          -6.7686  -16.2392   27.9269 F       1  UNL1       -0.1932
     22 S         -10.5662  -19.3689   20.3752 S.3     1  UNL1       -0.0881
     23 C          -9.2243  -19.3905   19.7055 C.3     1  UNL1        0.0850
     24 C          -7.9731  -19.3991   20.5329 C.3     1  UNL1        0.1015
     25 C          -5.4273  -19.4025   20.0146 C.2     1  UNL1        0.2403
     26 O          -5.3357  -20.8277   20.4735 O.2     1  UNL1       -0.2735
     27 N          -6.7459  -18.6882   20.0443 N.am    1  UNL1       -0.3023
     28 H          -6.8060  -17.7529   19.7431 H       1  UNL1        0.1495
     29 C          -4.2001  -18.6917   19.5260 C.3     1  UNL1        0.1770
     30 N          -2.8398  -19.2344   19.8503 N.3     1  UNL1       -0.1603
     31 H          -2.9311  -20.2493   19.8968 H       1  UNL1        0.1504
     32 N          -1.4416  -18.3748   22.3615 N.3     1  UNL1       -0.1934
     33 S          -2.1407  -18.8046   21.1059 S.O2    1  UNL1        0.0931
     34 O          -2.4977  -17.3769   20.8160 O.2     1  UNL1       -0.1415
     35 O          -1.7837  -20.2325   21.3958 O.2     1  UNL1       -0.1415
     36 H          -1.0542  -19.1928   22.8320 H       1  UNL1        0.1453
     37 H          -2.1072  -17.9106   22.9794 H       1  UNL1        0.1453
@<TRIPOS>BOND
     1    32    33    1
     2    33    34    2
     3    33    35    2
     4    33    30    1
     5    30    29    1
     6    29    25    1
     7    25    26    2
     8    25    27   am
     9    27    24    1
    10    24    23    1
    11    23    22    1
    12    22     1    1
    13     1     2   ar
    14     2     3   ar
    15     3     4   ar
    16     4     5   ar
    17     5     6    1
    18     6     7    2
    19     7     8    1
    20     6    10    1
    21    10    12    1
    22    12    13   ar
    23    13    14   ar
    24    14    15   ar
    25    15    16    1
    26    15    17   ar
    27    17    19    1
    28    19    20    1
    29    19    21    1
    30    17    18   ar
    31     5     1   ar
    32    18    12   ar
    33    32    36    1
    34    32    37    1
    35    30    31    1
    36    27    28    1
    37     8     9    1
    38    10    11    1
@<TRIPOS>MOLECULE
*****
 37 38 0 0 0
SMALL
GASTEIGER

@<TRIPOS>ATOM
      1 C          -9.6010  -19.7434   22.2146 C.ar    1  UNL1        0.1762
      2 N         -10.8176  -20.2145   21.4744 N.ar    1  UNL1       -0.0417
      3 O         -10.7602  -19.6543   20.0841 O.2     1  UNL1       -0.2408
      4 N          -9.5080  -18.8370   19.9651 N.ar    1  UNL1       -0.0399
      5 C          -8.7916  -18.8920   21.2818 C.ar    1  UNL1        0.2348
      6 C          -7.4937  -18.2146   21.6084 C.2     1  UNL1        0.3935
      7 N          -6.2194  -19.0057   21.6299 N.2     1  UNL1        0.1538
      8 O          -4.9216  -18.3284   21.9565 O.2     1  UNL1       -0.3110
      9 H          -4.1256  -18.8225   21.9698 H       1  UNL1        0.3605
     10 N          -7.4701  -16.7462   21.9136 N.pl3   1  UNL1       -0.1943
     11 H          -7.7177  -16.0949   21.2181 H       1  UNL1        0.2987
     12 C          -7.0693  -16.2702   23.2784 C.ar    1  UNL1        0.1358
     13 C          -5.7282  -15.6312   23.4860 C.ar    1  UNL1        0.0424
     14 C          -5.3274  -15.1551   24.8508 C.ar    1  UNL1        0.0330
     15 C          -6.2677  -15.3180   26.0080 C.ar    1  UNL1        0.1416
     16 F          -5.8669  -14.8420   27.3729 F       1  UNL1       -0.2043
     17 C          -7.6089  -15.9571   25.8005 C.ar    1  UNL1        0.0744
     18 C          -8.0097  -16.4331   24.4357 C.ar    1  UNL1        0.0435
     19 C          -8.5492  -16.1200   26.9578 C.3     1  UNL1        0.3433
     20 F          -8.8824  -14.9423   27.8249 F       1  UNL1       -0.1932
     21 F          -9.1562  -17.4606   27.2478 F       1  UNL1       -0.1932
     22 S          -9.2546  -20.0668   23.6378 S.3     1  UNL1       -0.0881
     23 C         -10.2968  -19.9450   24.7096 C.3     1  UNL1        0.0850
     24 C         -11.1049  -18.6871   24.8306 C.3     1  UNL1        0.1015
     25 C         -12.5383  -17.4047   23.0840 C.2     1  UNL1        0.2403
     26 O         -13.7830  -18.0131   23.6588 O.2     1  UNL1       -0.2735
     27 N         -11.1992  -17.7417   23.6699 N.am    1  UNL1       -0.3023
     28 H         -10.3822  -17.3424   23.2926 H       1  UNL1        0.1495
     29 C         -12.6326  -16.4593   21.9232 C.3     1  UNL1        0.1770
     30 N         -12.0525  -16.8431   20.5942 N.3     1  UNL1       -0.1603
     31 H         -11.3822  -17.5915   20.7706 H       1  UNL1        0.1504
     32 N         -10.6386  -14.7899   18.9254 N.3     1  UNL1       -0.1934
     33 S         -11.3455  -15.8165   19.7598 S.O2    1  UNL1        0.0931
     34 O         -10.2053  -15.8096   20.7344 O.2     1  UNL1       -0.1415
     35 O         -12.4858  -15.8235   18.7852 O.2     1  UNL1       -0.1415
     36 H         -11.2093  -14.5617   18.1114 H       1  UNL1        0.1453
     37 H          -9.7403  -15.1622   18.6172 H       1  UNL1        0.1453
@<TRIPOS>BOND
     1    32    33    1
     2    33    34    2
     3    33    35    2
     4    33    30    1
     5    30    29    1
     6    29    25    1
     7    25    26    2
     8    25    27   am
     9    27    24    1
    10    24    23    1
    11    23    22    1
    12    22     1    1
    13     1     2   ar
    14     2     3   ar
    15     3     4   ar
    16     4     5   ar
    17     5     6    1
    18     6     7    2
    19     7     8    1
    20     6    10    1
    21    10    12    1
    22    12    13   ar
    23    13    14   ar
    24    14    15   ar
    25    15    16    1
    26    15    17   ar
    27    17    19    1
    28    19    20    1
    29    19    21    1
    30    17    18   ar
    31     5     1   ar
    32    18    12   ar
    33    32    36    1
    34    32    37    1
    35    30    31    1
    36    27    28    1
    37     8     9    1
    38    10    11    1
@<TRIPOS>MOLECULE
*****
 37 38 0 0 0
SMALL
GASTEIGER

@<TRIPOS>ATOM
      1 C          -5.8291  -15.7857   24.5380 C.ar    1  UNL1        0.1762
      2 N          -5.8628  -15.3382   25.9693 N.ar    1  UNL1       -0.0417
      3 O          -7.2992  -15.2328   26.3883 O.2     1  UNL1       -0.2408
      4 N          -8.1532  -15.6152   25.2159 N.ar    1  UNL1       -0.0399
      5 C          -7.2446  -15.9569   24.0724 C.ar    1  UNL1        0.2348
      6 C          -7.6759  -16.3931   22.7036 C.2     1  UNL1        0.3935
      7 N          -7.0125  -17.5674   22.0469 N.2     1  UNL1        0.1538
      8 O          -7.4437  -18.0037   20.6781 O.2     1  UNL1       -0.3110
      9 H          -7.0294  -18.7372   20.2680 H       1  UNL1        0.3605
     10 N          -8.7704  -15.6552   21.9913 N.pl3   1  UNL1       -0.1943
     11 H          -8.5915  -14.7721   21.5947 H       1  UNL1        0.2987
     12 C         -10.1376  -16.2628   21.8834 C.ar    1  UNL1        0.1358
     13 C         -10.9136  -16.1414   20.6055 C.ar    1  UNL1        0.0424
     14 C         -12.2808  -16.7490   20.4976 C.ar    1  UNL1        0.0330
     15 C         -12.8720  -17.4779   21.6676 C.ar    1  UNL1        0.1416
     16 F         -14.2392  -18.0855   21.5597 F       1  UNL1       -0.2043
     17 C         -12.0961  -17.5993   22.9456 C.ar    1  UNL1        0.0744
     18 C         -10.7289  -16.9918   23.0535 C.ar    1  UNL1        0.0435
     19 C         -12.6873  -18.3283   24.1156 C.3     1  UNL1        0.3433
     20 F         -14.1243  -18.1104   24.4867 F       1  UNL1       -0.1932
     21 F         -11.8417  -19.2752   24.9145 F       1  UNL1       -0.1932
     22 S          -4.5962  -16.0207   23.7166 S.3     1  UNL1       -0.0881
     23 C          -3.7919  -17.2716   23.9119 C.3     1  UNL1        0.0850
     24 C          -4.1294  -18.5093   23.1348 C.3     1  UNL1        0.1015
     25 C          -3.1068  -19.4238   20.9284 C.2     1  UNL1        0.2403
     26 O          -2.2397  -20.3591   21.7179 O.2     1  UNL1       -0.2735
     27 N          -4.0517  -18.4989   21.6368 N.am    1  UNL1       -0.3023
     28 H          -4.6208  -17.8851   21.1187 H       1  UNL1        0.1495
     29 C          -3.0291  -19.4134   19.4305 C.3     1  UNL1        0.1770
     30 N          -2.0154  -18.5515   18.7380 N.3     1  UNL1       -0.1603
     31 H          -1.3896  -19.1799   18.2342 H       1  UNL1        0.1504
     32 N          -0.2797  -16.6985   20.3361 N.3     1  UNL1       -0.1934
     33 S          -1.1476  -17.6250   19.5370 S.O2    1  UNL1        0.0931
     34 O          -0.0259  -18.6188   19.4712 O.2     1  UNL1       -0.1415
     35 O          -2.2693  -16.6312   19.6029 O.2     1  UNL1       -0.1415
     36 H          -0.8021  -15.8514   20.5594 H       1  UNL1        0.1453
     37 H           0.5479  -16.4542   19.7922 H       1  UNL1        0.1453
@<TRIPOS>BOND
     1    32    33    1
     2    33    34    2
     3    33    35    2
     4    33    30    1
     5    30    29    1
     6    29    25    1
     7    25    26    2
     8    25    27   am
     9    27    24    1
    10    24    23    1
    11    23    22    1
    12    22     1    1
    13     1     2   ar
    14     2     3   ar
    15     3     4   ar
    16     4     5   ar
    17     5     6    1
    18     6     7    2
    19     7     8    1
    20     6    10    1
    21    10    12    1
    22    12    13   ar
    23    13    14   ar
    24    14    15   ar
    25    15    16    1
    26    15    17   ar
    27    17    19    1
    28    19    20    1
    29    19    21    1
    30    17    18   ar
    31     5     1   ar
    32    18    12   ar
    33    32    36    1
    34    32    37    1
    35    30    31    1
    36    27    28    1
    37     8     9    1
    38    10    11    1
@<TRIPOS>MOLECULE
*****
 37 38 0 0 0
SMALL
GASTEIGER

@<TRIPOS>ATOM
      1 C         -11.6124  -18.2560   20.9575 C.ar    1  UNL1        0.1762
      2 N         -11.8072  -17.3194   19.8021 N.ar    1  UNL1       -0.0417
      3 O         -12.4885  -16.0856   20.3154 O.2     1  UNL1       -0.2408
      4 N         -12.7147  -16.2597   21.7880 N.ar    1  UNL1       -0.0399
      5 C         -12.1733  -17.6011   22.1848 C.ar    1  UNL1        0.2348
      6 C         -12.1899  -18.1850   23.5664 C.2     1  UNL1        0.3935
      7 N         -13.4661  -18.2113   24.3543 N.2     1  UNL1        0.1538
      8 O         -13.4827  -18.7952   25.7359 O.2     1  UNL1       -0.3110
      9 H         -14.2799  -18.8116   26.2280 H       1  UNL1        0.3605
     10 N         -10.9304  -18.7426   24.1601 N.pl3   1  UNL1       -0.1943
     11 H         -10.8035  -19.7171   24.2193 H       1  UNL1        0.2987
     12 C          -9.8641  -17.8155   24.6637 C.ar    1  UNL1        0.1358
     13 C          -9.5987  -17.7070   26.1360 C.ar    1  UNL1        0.0424
     14 C          -8.5324  -16.7799   26.6395 C.ar    1  UNL1        0.0330
     15 C          -7.7316  -15.9613   25.6708 C.ar    1  UNL1        0.1416
     16 F          -6.6653  -15.0342   26.1744 F       1  UNL1       -0.2043
     17 C          -7.9970  -16.0698   24.1984 C.ar    1  UNL1        0.0744
     18 C          -9.0632  -16.9969   23.6949 C.ar    1  UNL1        0.0435
     19 C          -7.1961  -15.2512   23.2297 C.3     1  UNL1        0.3433
     20 F          -7.8500  -14.6907   22.0015 F       1  UNL1       -0.1932
     21 F          -5.7415  -14.9931   23.4891 F       1  UNL1       -0.1932
     22 S         -10.9696  -19.6099   20.8962 S.3     1  UNL1       -0.0881
     23 C          -9.4767  -19.7354   20.9695 C.3     1  UNL1        0.0850
     24 C          -8.6401  -19.4564   19.7561 C.3     1  UNL1        0.1015
     25 C          -6.1551  -19.2239   20.4776 C.2     1  UNL1        0.2403
     26 O          -6.5100  -18.0318   21.3160 O.2     1  UNL1       -0.2735
     27 N          -7.2201  -19.9362   19.6977 N.am    1  UNL1       -0.3023
     28 H          -6.9871  -20.7186   19.1475 H       1  UNL1        0.1495
     29 C          -4.7351  -19.7036   20.4192 C.3     1  UNL1        0.1770
     30 N          -3.8790  -19.6647   21.6504 N.3     1  UNL1       -0.1603
     31 H          -4.4171  -19.1790   22.3680 H       1  UNL1        0.1504
     32 N          -1.1797  -18.3589   21.5598 N.3     1  UNL1       -0.1934
     33 S          -2.5294  -19.0118   21.6051 S.O2    1  UNL1        0.0931
     34 O          -1.8803  -20.3604   21.5047 O.2     1  UNL1       -0.1415
     35 O          -3.1785  -17.6632   21.7054 O.2     1  UNL1       -0.1415
     36 H          -1.2899  -17.3463   21.6138 H       1  UNL1        0.1453
     37 H          -0.7126  -18.6039   20.6868 H       1  UNL1        0.1453
@<TRIPOS>BOND
     1    32    33    1
     2    33    34    2
     3    33    35    2
     4    33    30    1
     5    30    29    1
     6    29    25    1
     7    25    26    2
     8    25    27   am
     9    27    24    1
    10    24    23    1
    11    23    22    1
    12    22     1    1
    13     1     2   ar
    14     2     3   ar
    15     3     4   ar
    16     4     5   ar
    17     5     6    1
    18     6     7    2
    19     7     8    1
    20     6    10    1
    21    10    12    1
    22    12    13   ar
    23    13    14   ar
    24    14    15   ar
    25    15    16    1
    26    15    17   ar
    27    17    19    1
    28    19    20    1
    29    19    21    1
    30    17    18   ar
    31     5     1   ar
    32    18    12   ar
    33    32    36    1
    34    32    37    1
    35    30    31    1
    36    27    28    1
    37     8     9    1
    38    10    11    1
@<TRIPOS>MOLECULE
*****
 37 38 0 0 0
SMALL
GASTEIGER

@<TRIPOS>ATOM
      1 C          -7.2327  -15.8489   24.6483 C.ar    1  UNL1        0.1762
      2 N          -7.9698  -15.4813   25.9019 N.ar    1  UNL1       -0.0417
      3 O          -6.9578  -15.2605   26.9868 O.2     1  UNL1       -0.2408
      4 N          -5.5952  -15.4916   26.4036 N.ar    1  UNL1       -0.0399
      5 C          -5.7651  -15.8553   24.9584 C.ar    1  UNL1        0.2348
      6 C          -4.6613  -16.1701   23.9927 C.2     1  UNL1        0.3935
      7 N          -4.2497  -15.1554   22.9675 N.2     1  UNL1        0.1538
      8 O          -3.1458  -15.4703   22.0018 O.2     1  UNL1       -0.3110
      9 H          -2.8887  -14.8365   21.3614 H       1  UNL1        0.3605
     10 N          -3.9691  -17.4995   24.0523 N.pl3   1  UNL1       -0.1943
     11 H          -3.5449  -17.7965   24.8897 H       1  UNL1        0.2987
     12 C          -3.9232  -18.3764   22.8362 C.ar    1  UNL1        0.1358
     13 C          -2.6018  -18.7899   22.2592 C.ar    1  UNL1        0.0424
     14 C          -2.5559  -19.6667   21.0431 C.ar    1  UNL1        0.0330
     15 C          -3.8313  -20.1301   20.4039 C.ar    1  UNL1        0.1416
     16 F          -3.7854  -21.0070   19.1878 F       1  UNL1       -0.2043
     17 C          -5.1528  -19.7166   20.9809 C.ar    1  UNL1        0.0744
     18 C          -5.1987  -18.8397   22.1971 C.ar    1  UNL1        0.0435
     19 C          -6.4282  -20.1799   20.3418 C.3     1  UNL1        0.3433
     20 F          -7.6099  -19.2587   20.2720 F       1  UNL1       -0.1932
     21 F          -6.5219  -21.5645   19.7725 F       1  UNL1       -0.1932
     22 S          -7.8541  -16.1562   23.3181 S.3     1  UNL1       -0.0881
     23 C          -7.7576  -15.1635   22.1979 C.3     1  UNL1        0.0850
     24 C          -8.8927  -15.0133   21.2288 C.3     1  UNL1        0.1015
     25 C         -11.2256  -15.8025   20.4013 C.2     1  UNL1        0.2403
     26 O         -10.9479  -15.2088   19.0521 O.2     1  UNL1       -0.2735
     27 N         -10.1980  -15.7047   21.4897 N.am    1  UNL1       -0.3023
     28 H         -10.3803  -16.0944   22.3752 H       1  UNL1        0.1495
     29 C         -12.5309  -16.4940   20.6622 C.3     1  UNL1        0.1770
     30 N         -12.5438  -17.9093   21.1587 N.3     1  UNL1       -0.1603
     31 H         -13.5015  -18.2466   21.0619 H       1  UNL1        0.1504
     32 N         -11.6901  -18.5210   23.9689 N.3     1  UNL1       -0.1934
     33 S         -12.1170  -18.2152   22.5638 S.O2    1  UNL1        0.0931
     34 O         -13.4154  -17.6674   23.0775 O.2     1  UNL1       -0.1415
     35 O         -10.8184  -18.7629   22.0500 O.2     1  UNL1       -0.1415
     36 H         -10.7609  -18.9415   23.9580 H       1  UNL1        0.1453
     37 H         -12.3527  -19.1712   24.3916 H       1  UNL1        0.1453
@<TRIPOS>BOND
     1    32    33    1
     2    33    34    2
     3    33    35    2
     4    33    30    1
     5    30    29    1
     6    29    25    1
     7    25    26    2
     8    25    27   am
     9    27    24    1
    10    24    23    1
    11    23    22    1
    12    22     1    1
    13     1     2   ar
    14     2     3   ar
    15     3     4   ar
    16     4     5   ar
    17     5     6    1
    18     6     7    2
    19     7     8    1
    20     6    10    1
    21    10    12    1
    22    12    13   ar
    23    13    14   ar
    24    14    15   ar
    25    15    16    1
    26    15    17   ar
    27    17    19    1
    28    19    20    1
    29    19    21    1
    30    17    18   ar
    31     5     1   ar
    32    18    12   ar
    33    32    36    1
    34    32    37    1
    35    30    31    1
    36    27    28    1
    37     8     9    1
    38    10    11    1
@<TRIPOS>MOLECULE
*****
 37 38 0 0 0
SMALL
GASTEIGER

@<TRIPOS>ATOM
      1 C          -7.4505  -15.8368   24.6368 C.ar    1  UNL1        0.1762
      2 N          -8.2607  -15.5237   25.8598 N.ar    1  UNL1       -0.0417
      3 O          -7.3107  -15.2648   26.9914 O.2     1  UNL1       -0.2408
      4 N          -5.9134  -15.4179   26.4677 N.ar    1  UNL1       -0.0399
      5 C          -5.9998  -15.7715   25.0126 C.ar    1  UNL1        0.2348
      6 C          -4.8393  -16.0166   24.0943 C.2     1  UNL1        0.3935
      7 N          -4.4639  -14.9881   23.0689 N.2     1  UNL1        0.1538
      8 O          -3.3034  -15.2332   22.1507 O.2     1  UNL1       -0.3110
      9 H          -3.0690  -14.5908   21.5102 H       1  UNL1        0.3605
     10 N          -4.0541  -17.2902   24.2015 N.pl3   1  UNL1       -0.1943
     11 H          -3.6464  -17.5463   25.0602 H       1  UNL1        0.2987
     12 C          -3.8901  -18.1735   23.0003 C.ar    1  UNL1        0.1358
     13 C          -2.5242  -18.4204   22.4318 C.ar    1  UNL1        0.0424
     14 C          -2.3603  -19.3037   21.2306 C.ar    1  UNL1        0.0330
     15 C          -3.5622  -19.9401   20.5979 C.ar    1  UNL1        0.1416
     16 F          -3.3982  -20.8234   19.3967 F       1  UNL1       -0.2043
     17 C          -4.9282  -19.6932   21.1665 C.ar    1  UNL1        0.0744
     18 C          -5.0922  -18.8099   22.3677 C.ar    1  UNL1        0.0435
     19 C          -6.1301  -20.3297   20.5338 C.3     1  UNL1        0.3433
     20 F          -7.3125  -19.4879   20.1552 F       1  UNL1       -0.1932
     21 F          -6.1496  -21.8078   20.2798 F       1  UNL1       -0.1932
     22 S          -7.9954  -16.1588   23.2769 S.3     1  UNL1       -0.0881
     23 C          -7.8769  -17.5512   22.7318 C.3     1  UNL1        0.0850
     24 C          -8.9670  -18.5504   22.9832 C.3     1  UNL1        0.1015
     25 C         -11.5607  -18.4292   23.0726 C.2     1  UNL1        0.2403
     26 O         -11.5164  -18.5812   24.5642 O.2     1  UNL1       -0.2735
     27 N         -10.2860  -18.4138   22.2821 N.am    1  UNL1       -0.3023
     28 H         -10.3151  -18.3140   21.3031 H       1  UNL1        0.1495
     29 C         -12.8797  -18.2925   22.3716 C.3     1  UNL1        0.1770
     30 N         -13.0208  -17.3454   21.2169 N.3     1  UNL1       -0.1603
     31 H         -13.3484  -17.8957   20.4230 H       1  UNL1        0.1504
     32 N         -10.6470  -15.7781   20.2638 N.3     1  UNL1       -0.1934
     33 S         -11.8339  -16.5617   20.7404 S.O2    1  UNL1        0.0931
     34 O         -11.9594  -15.6510   21.9256 O.2     1  UNL1       -0.1415
     35 O         -11.7085  -17.4726   19.5551 O.2     1  UNL1       -0.1415
     36 H         -10.2976  -16.1843   19.3959 H       1  UNL1        0.1453
     37 H          -9.9138  -15.8071   20.9722 H       1  UNL1        0.1453
@<TRIPOS>BOND
     1    32    33    1
     2    33    34    2
     3    33    35    2
     4    33    30    1
     5    30    29    1
     6    29    25    1
     7    25    26    2
     8    25    27   am
     9    27    24    1
    10    24    23    1
    11    23    22    1
    12    22     1    1
    13     1     2   ar
    14     2     3   ar
    15     3     4   ar
    16     4     5   ar
    17     5     6    1
    18     6     7    2
    19     7     8    1
    20     6    10    1
    21    10    12    1
    22    12    13   ar
    23    13    14   ar
    24    14    15   ar
    25    15    16    1
    26    15    17   ar
    27    17    19    1
    28    19    20    1
    29    19    21    1
    30    17    18   ar
    31     5     1   ar
    32    18    12   ar
    33    32    36    1
    34    32    37    1
    35    30    31    1
    36    27    28    1
    37     8     9    1
    38    10    11    1
@<TRIPOS>MOLECULE
*****
 37 38 0 0 0
SMALL
GASTEIGER

@<TRIPOS>ATOM
      1 C          -7.5237  -16.0689   24.9256 C.ar    1  UNL1        0.1762
      2 N          -8.2890  -15.7712   26.1808 N.ar    1  UNL1       -0.0417
      3 O          -7.3216  -15.2468   27.2002 O.2     1  UNL1       -0.2408
      4 N          -5.9584  -15.2206   26.5750 N.ar    1  UNL1       -0.0399
      5 C          -6.0832  -15.7287   25.1692 C.ar    1  UNL1        0.2348
      6 C          -4.9642  -15.8714   24.1806 C.2     1  UNL1        0.3935
      7 N          -4.6650  -14.7583   23.2206 N.2     1  UNL1        0.1538
      8 O          -3.5459  -14.9010   22.2320 O.2     1  UNL1       -0.3110
      9 H          -3.3590  -14.2057   21.6323 H       1  UNL1        0.3605
     10 N          -4.1443  -17.1271   24.1520 N.pl3   1  UNL1       -0.1943
     11 H          -3.6604  -17.4175   24.9587 H       1  UNL1        0.2987
     12 C          -4.0618  -17.9405   22.8943 C.ar    1  UNL1        0.1358
     13 C          -5.1664  -18.8925   22.5430 C.ar    1  UNL1        0.0424
     14 C          -5.0838  -19.7058   21.2854 C.ar    1  UNL1        0.0330
     15 C          -3.8967  -19.5671   20.3791 C.ar    1  UNL1        0.1416
     16 F          -3.8142  -20.3805   19.1214 F       1  UNL1       -0.2043
     17 C          -2.7920  -18.6151   20.7304 C.ar    1  UNL1        0.0744
     18 C          -2.8746  -17.8017   21.9880 C.ar    1  UNL1        0.0435
     19 C          -1.6049  -18.4764   19.8240 C.3     1  UNL1        0.3433
     20 F          -1.7995  -18.4091   18.3382 F       1  UNL1       -0.1932
     21 F          -0.2233  -18.4050   20.4035 F       1  UNL1       -0.1932
     22 S          -8.0980  -16.6117   23.6506 S.3     1  UNL1       -0.0881
     23 C          -8.2878  -15.7077   22.4689 C.3     1  UNL1        0.0850
     24 C          -9.5182  -15.8314   21.6198 C.3     1  UNL1        0.1015
     25 C         -10.1153  -18.3388   21.2936 C.2     1  UNL1        0.2403
     26 O          -8.8283  -18.5489   20.5524 O.2     1  UNL1       -0.2735
     27 N         -10.4603  -16.9801   21.8274 N.am    1  UNL1       -0.3023
     28 H         -11.3050  -16.8422   22.3139 H       1  UNL1        0.1495
     29 C         -11.0574  -19.4875   21.5012 C.3     1  UNL1        0.1770
     30 N         -10.8774  -20.4022   22.6763 N.3     1  UNL1       -0.1603
     31 H         -11.7763  -20.8571   22.8357 H       1  UNL1        0.1504
     32 N          -9.9874  -19.2932   25.3179 N.3     1  UNL1       -0.1934
     33 S         -10.4324  -19.8477   23.9971 S.O2    1  UNL1        0.0931
     34 O          -9.1726  -20.6575   23.9126 O.2     1  UNL1       -0.1415
     35 O         -11.6922  -19.0378   24.0815 O.2     1  UNL1       -0.1415
     36 H         -10.6942  -18.6484   25.6714 H       1  UNL1        0.1453
     37 H          -9.1041  -18.7974   25.1983 H       1  UNL1        0.1453
@<TRIPOS>BOND
     1    32    33    1
     2    33    34    2
     3    33    35    2
     4    33    30    1
     5    30    29    1
     6    29    25    1
     7    25    26    2
     8    25    27   am
     9    27    24    1
    10    24    23    1
    11    23    22    1
    12    22     1    1
    13     1     2   ar
    14     2     3   ar
    15     3     4   ar
    16     4     5   ar
    17     5     6    1
    18     6     7    2
    19     7     8    1
    20     6    10    1
    21    10    12    1
    22    12    13   ar
    23    13    14   ar
    24    14    15   ar
    25    15    16    1
    26    15    17   ar
    27    17    19    1
    28    19    20    1
    29    19    21    1
    30    17    18   ar
    31     5     1   ar
    32    18    12   ar
    33    32    36    1
    34    32    37    1
    35    30    31    1
    36    27    28    1
    37     8     9    1
    38    10    11    1
@<TRIPOS>MOLECULE
*****
 37 38 0 0 0
SMALL
GASTEIGER

@<TRIPOS>ATOM
      1 C         -10.7170  -19.3189   21.1687 C.ar    1  UNL1        0.1762
      2 N         -11.0093  -20.5583   21.9615 N.ar    1  UNL1       -0.0417
      3 O         -11.1510  -20.1645   23.4019 O.2     1  UNL1       -0.2408
      4 N         -10.9463  -18.6818   23.4994 N.ar    1  UNL1       -0.0399
      5 C         -10.6780  -18.1591   22.1192 C.ar    1  UNL1        0.2348
      6 C         -10.4166  -16.7280   21.7536 C.2     1  UNL1        0.3935
      7 N         -10.3661  -16.3196   20.3111 N.2     1  UNL1        0.1538
      8 O         -10.1047  -14.8885   19.9456 O.2     1  UNL1       -0.3110
      9 H         -10.0731  -14.6334   19.0446 H       1  UNL1        0.3605
     10 N         -10.2059  -15.7054   22.8305 N.pl3   1  UNL1       -0.1943
     11 H         -10.9167  -15.0571   23.0397 H       1  UNL1        0.2987
     12 C          -8.9121  -15.6703   23.5887 C.ar    1  UNL1        0.1358
     13 C          -7.6079  -15.7131   22.8490 C.ar    1  UNL1        0.0424
     14 C          -6.3141  -15.6780   23.6072 C.ar    1  UNL1        0.0330
     15 C          -6.3245  -15.6002   25.1051 C.ar    1  UNL1        0.1416
     16 F          -5.0307  -15.5651   25.8633 F       1  UNL1       -0.2043
     17 C          -7.6287  -15.5574   25.8449 C.ar    1  UNL1        0.0744
     18 C          -8.9225  -15.5925   25.0867 C.ar    1  UNL1        0.0435
     19 C          -7.6391  -15.4796   27.3428 C.3     1  UNL1        0.3433
     20 F          -8.6488  -16.2636   28.1276 F       1  UNL1       -0.1932
     21 F          -6.6398  -14.6178   28.0559 F       1  UNL1       -0.1932
     22 S         -10.5014  -19.2513   19.6858 S.3     1  UNL1       -0.0881
     23 C          -9.4571  -20.1124   19.0396 C.3     1  UNL1        0.0850
     24 C          -8.0563  -19.6003   18.8801 C.3     1  UNL1        0.1015
     25 C          -6.2207  -19.8470   20.7021 C.2     1  UNL1        0.2403
     26 O          -5.8584  -21.1957   20.1546 O.2     1  UNL1       -0.2735
     27 N          -7.3196  -19.0493   20.0649 N.am    1  UNL1       -0.3023
     28 H          -7.5574  -18.1641   20.4242 H       1  UNL1        0.1495
     29 C          -5.4841  -19.2960   21.8869 C.3     1  UNL1        0.1770
     30 N          -4.4973  -18.1811   21.7045 N.3     1  UNL1       -0.1603
     31 H          -4.5829  -17.8674   20.7377 H       1  UNL1        0.1504
     32 N          -1.5788  -18.6644   22.2030 N.3     1  UNL1       -0.1934
     33 S          -3.0381  -18.4227   21.9537 S.O2    1  UNL1        0.0931
     34 O          -2.9001  -19.0074   20.5793 O.2     1  UNL1       -0.1415
     35 O          -3.1761  -17.8380   23.3282 O.2     1  UNL1       -0.1415
     36 H          -1.3365  -18.3443   23.1407 H       1  UNL1        0.1453
     37 H          -1.0269  -18.1515   21.5155 H       1  UNL1        0.1453
@<TRIPOS>BOND
     1    32    33    1
     2    33    34    2
     3    33    35    2
     4    33    30    1
     5    30    29    1
     6    29    25    1
     7    25    26    2
     8    25    27   am
     9    27    24    1
    10    24    23    1
    11    23    22    1
    12    22     1    1
    13     1     2   ar
    14     2     3   ar
    15     3     4   ar
    16     4     5   ar
    17     5     6    1
    18     6     7    2
    19     7     8    1
    20     6    10    1
    21    10    12    1
    22    12    13   ar
    23    13    14   ar
    24    14    15   ar
    25    15    16    1
    26    15    17   ar
    27    17    19    1
    28    19    20    1
    29    19    21    1
    30    17    18   ar
    31     5     1   ar
    32    18    12   ar
    33    32    36    1
    34    32    37    1
    35    30    31    1
    36    27    28    1
    37     8     9    1
    38    10    11    1
