@<TRIPOS>MOLECULE
*****
 36 40 0 0 0
SMALL
GASTEIGER

@<TRIPOS>ATOM
      1 C           1.0131    1.0587   24.6720 C.ar    1  UNL1       -0.0025
      2 C           0.0173    1.3494   25.7553 C.ar    1  UNL1       -0.0014
      3 C           0.4316    1.2733   27.1950 C.ar    1  UNL1        0.0142
      4 C           1.8417    0.9065   27.5513 C.ar    1  UNL1        0.0479
      5 C           2.8375    0.6158   26.4679 C.ar    1  UNL1        0.0142
      6 C           2.4233    0.6918   25.0283 C.ar    1  UNL1       -0.0014
      7 N           2.2559    0.8304   28.9910 N.pl3   1  UNL1       -0.3041
      8 C           2.6738   -0.4830   29.5827 C.3     1  UNL1        0.1122
      9 C           3.0881   -0.5591   31.0224 C.3     1  UNL1        0.1122
     10 N           3.0844    0.6783   31.8703 N.pl3   1  UNL1       -0.3041
     11 C           2.6665    1.9918   31.2785 C.3     1  UNL1        0.1122
     12 C           2.2523    2.0678   29.8388 C.3     1  UNL1        0.1122
     13 C           3.4987    0.6023   33.3099 C.ar    1  UNL1        0.0481
     14 C           3.1540    1.7195   34.2496 C.ar    1  UNL1        0.0168
     15 C           3.5683    1.6434   35.6892 C.ar    1  UNL1        0.0309
     16 C           4.3272    0.4501   36.1893 C.ar    1  UNL1        0.1402
     17 F           4.7414    0.3740   37.6289 F       1  UNL1       -0.2042
     18 C           4.6718   -0.6671   35.2496 C.ar    1  UNL1        0.0309
     19 C           4.2576   -0.5911   33.8099 C.ar    1  UNL1        0.0168
     20 C           0.5989    1.1347   23.2323 C.3     1  UNL1        0.1166
     21 C           1.2210    0.5430   20.7802 C.2     1  UNL1        0.2635
     22 O          -0.2140    0.2104   20.4965 O.2     1  UNL1       -0.2685
     23 N           1.6273    1.0052   22.1481 N.am    1  UNL1       -0.2957
     24 H           2.5691    1.2234   22.3343 H       1  UNL1        0.1501
     25 C           2.6842    1.5009   18.7586 C.ar    1  UNL1        0.0811
     26 N           3.7271    0.9332   17.8421 N.ar    1  UNL1       -0.2306
     27 C           3.9370   -0.5050   18.2130 C.ar    1  UNL1        0.1475
     28 C           4.8416   -1.5636   17.6555 C.ar    1  UNL1        0.0383
     29 C           4.8330   -2.9434   18.2437 C.ar    1  UNL1        0.0160
     30 C           3.9197   -3.2646   19.3895 C.ar    1  UNL1        0.0753
     31 CL          3.9111   -4.6445   19.9777 Cl      1  UNL1       -0.0807
     32 C           3.0151   -2.2060   19.9470 C.ar    1  UNL1        0.0929
     33 N           3.0237   -0.8262   19.3588 N.ar    1  UNL1       -0.2845
     34 C           2.2495    0.4135   19.6960 C.ar    1  UNL1        0.1326
     35 C           0.7629    3.1862   18.2918 C.3     1  UNL1        0.0067
     36 C           2.1669    2.9087   18.7409 C.3     1  UNL1        0.0475
@<TRIPOS>BOND
     1    35    36    1
     2    36    25    1
     3    25    26   ar
     4    26    27   ar
     5    27    28   ar
     6    28    29   ar
     7    29    30   ar
     8    30    31    1
     9    30    32   ar
    10    32    33   ar
    11    33    34   ar
    12    34    21    1
    13    21    22    2
    14    21    23   am
    15    23    20    1
    16    20     1    1
    17     1     2   ar
    18     2     3   ar
    19     3     4   ar
    20     4     7    1
    21     7     8    1
    22     8     9    1
    23     9    10    1
    24    10    13    1
    25    13    14   ar
    26    14    15   ar
    27    15    16   ar
    28    16    17    1
    29    16    18   ar
    30    18    19   ar
    31    10    11    1
    32    11    12    1
    33     4     5   ar
    34     5     6   ar
    35    34    25   ar
    36     6     1   ar
    37    33    27   ar
    38    12     7    1
    39    19    13   ar
    40    23    24    1
@<TRIPOS>MOLECULE
*****
 36 40 0 0 0
SMALL
GASTEIGER

@<TRIPOS>ATOM
      1 C           6.2292   -3.5995   24.4145 C.ar    1  UNL1       -0.0025
      2 C           6.8321   -4.4776   25.4705 C.ar    1  UNL1       -0.0014
      3 C           6.7737   -4.0658   26.9117 C.ar    1  UNL1        0.0142
      4 C           6.1124   -2.7758   27.2969 C.ar    1  UNL1        0.0479
      5 C           5.5094   -1.8976   26.2408 C.ar    1  UNL1        0.0142
      6 C           5.5678   -2.3094   24.7997 C.ar    1  UNL1       -0.0014
      7 N           6.0540   -2.3640   28.7380 N.pl3   1  UNL1       -0.3041
      8 C           5.5009   -1.0209   29.1124 C.3     1  UNL1        0.1122
      9 C           5.4425   -0.6091   30.5536 C.3     1  UNL1        0.1122
     10 N           5.9372   -1.5404   31.6204 N.pl3   1  UNL1       -0.3041
     11 C           6.4903   -2.8834   31.2460 C.3     1  UNL1        0.1122
     12 C           6.5487   -3.2952   29.8048 C.3     1  UNL1        0.1122
     13 C           5.8788   -1.1285   33.0616 C.ar    1  UNL1        0.0481
     14 C           7.0911   -0.5449   33.7245 C.ar    1  UNL1        0.0168
     15 C           7.0327   -0.1331   35.1657 C.ar    1  UNL1        0.0309
     16 C           5.7620   -0.3049   35.9440 C.ar    1  UNL1        0.1402
     17 F           5.7036    0.1069   37.3851 F       1  UNL1       -0.2042
     18 C           4.5497   -0.8886   35.2810 C.ar    1  UNL1        0.0309
     19 C           4.6081   -1.3004   33.8398 C.ar    1  UNL1        0.0168
     20 C           6.2875   -4.0113   22.9733 C.3     1  UNL1        0.1166
     21 C           5.1618   -3.2751   20.7505 C.2     1  UNL1        0.2635
     22 O           4.4289   -4.5825   20.6888 O.2     1  UNL1       -0.2685
     23 N           6.0911   -2.9896   21.8928 N.am    1  UNL1       -0.2957
     24 H           6.5720   -2.1315   21.9333 H       1  UNL1        0.1501
     25 C           5.9392   -1.9281   18.5766 C.ar    1  UNL1        0.0811
     26 N           5.3362   -0.8513   17.7240 N.ar    1  UNL1       -0.2306
     27 C           3.9896   -0.5111   18.2906 C.ar    1  UNL1        0.1475
     28 C           2.9425    0.4757   17.8667 C.ar    1  UNL1        0.0383
     29 C           1.6662    0.5960   18.6455 C.ar    1  UNL1        0.0160
     30 C           1.4370   -0.2706   19.8482 C.ar    1  UNL1        0.0753
     31 CL          0.1607   -0.1502   20.6270 Cl      1  UNL1       -0.0807
     32 C           2.4841   -1.2574   20.2721 C.ar    1  UNL1        0.0929
     33 N           3.7604   -1.3777   19.4933 N.ar    1  UNL1       -0.2845
     34 C           4.9653   -2.2534   19.6700 C.ar    1  UNL1        0.1326
     35 C           8.4582   -2.1167   19.1842 C.3     1  UNL1        0.0067
     36 C           7.2806   -2.5673   18.3716 C.3     1  UNL1        0.0475
@<TRIPOS>BOND
     1    35    36    1
     2    36    25    1
     3    25    26   ar
     4    26    27   ar
     5    27    28   ar
     6    28    29   ar
     7    29    30   ar
     8    30    31    1
     9    30    32   ar
    10    32    33   ar
    11    33    34   ar
    12    34    21    1
    13    21    22    2
    14    21    23   am
    15    23    20    1
    16    20     1    1
    17     1     2   ar
    18     2     3   ar
    19     3     4   ar
    20     4     7    1
    21     7     8    1
    22     8     9    1
    23     9    10    1
    24    10    13    1
    25    13    14   ar
    26    14    15   ar
    27    15    16   ar
    28    16    17    1
    29    16    18   ar
    30    18    19   ar
    31    10    11    1
    32    11    12    1
    33     4     5   ar
    34     5     6   ar
    35    34    25   ar
    36     6     1   ar
    37    33    27   ar
    38    12     7    1
    39    19    13   ar
    40    23    24    1
@<TRIPOS>MOLECULE
*****
 36 40 0 0 0
SMALL
GASTEIGER

@<TRIPOS>ATOM
      1 C           5.6337   -0.8907   34.7217 C.ar    1  UNL1       -0.0025
      2 C           6.9948   -0.8182   34.0957 C.ar    1  UNL1       -0.0014
      3 C           7.2863   -1.5899   32.8428 C.ar    1  UNL1        0.0142
      4 C           6.2165   -2.4341   32.2160 C.ar    1  UNL1        0.0479
      5 C           4.8553   -2.5065   32.8420 C.ar    1  UNL1        0.0142
      6 C           4.5639   -1.7349   34.0948 C.ar    1  UNL1       -0.0014
      7 N           6.5079   -3.2057   30.9631 N.pl3   1  UNL1       -0.3041
      8 C           6.4741   -2.5152   29.6320 C.3     1  UNL1        0.1122
      9 C           6.7655   -3.2868   28.3792 C.3     1  UNL1        0.1122
     10 N           7.0908   -4.7490   28.4575 N.pl3   1  UNL1       -0.3041
     11 C           7.1247   -5.4396   29.7886 C.3     1  UNL1        0.1122
     12 C           6.8333   -4.6679   31.0415 C.3     1  UNL1        0.1122
     13 C           7.3823   -5.5207   27.2047 C.ar    1  UNL1        0.0481
     14 C           7.4015   -4.8192   25.8790 C.ar    1  UNL1        0.0168
     15 C           7.6929   -5.5908   24.6262 C.ar    1  UNL1        0.0309
     16 C           7.9651   -7.0641   24.6990 C.ar    1  UNL1        0.1402
     17 F           8.2566   -7.8358   23.4461 F       1  UNL1       -0.2042
     18 C           7.9459   -7.7657   26.0246 C.ar    1  UNL1        0.0309
     19 C           7.6545   -6.9940   27.2775 C.ar    1  UNL1        0.0168
     20 C           5.3422   -0.1190   35.9745 C.3     1  UNL1        0.1166
     21 C           4.2515    2.1356   36.6652 C.2     1  UNL1        0.2635
     22 O           5.5647    2.6003   37.2217 O.2     1  UNL1       -0.2685
     23 N           4.1403    0.7759   36.0417 N.am    1  UNL1       -0.2957
     24 H           3.2785    0.4709   35.6764 H       1  UNL1        0.1501
     25 C           1.9545    2.9608   37.7551 C.ar    1  UNL1        0.0811
     26 N           0.9599    4.0395   37.4433 N.ar    1  UNL1       -0.2306
     27 C           1.4403    4.7759   36.2280 C.ar    1  UNL1        0.1475
     28 C           0.8686    5.9336   35.4647 C.ar    1  UNL1        0.0383
     29 C           1.5884    6.4678   34.2620 C.ar    1  UNL1        0.0160
     30 C           2.8799    5.8442   33.8226 C.ar    1  UNL1        0.0753
     31 CL          3.5997    6.3784   32.6198 Cl      1  UNL1       -0.0807
     32 C           3.4516    4.6864   34.5859 C.ar    1  UNL1        0.0929
     33 N           2.7318    4.1523   35.7886 N.ar    1  UNL1       -0.2845
     34 C           3.0496    3.0305   36.7324 C.ar    1  UNL1        0.1326
     35 C           0.5894    1.8377   39.6590 C.3     1  UNL1        0.0067
     36 C           1.8690    1.9840   38.8902 C.3     1  UNL1        0.0475
@<TRIPOS>BOND
     1    35    36    1
     2    36    25    1
     3    25    26   ar
     4    26    27   ar
     5    27    28   ar
     6    28    29   ar
     7    29    30   ar
     8    30    31    1
     9    30    32   ar
    10    32    33   ar
    11    33    34   ar
    12    34    21    1
    13    21    22    2
    14    21    23   am
    15    23    20    1
    16    20     1    1
    17     1     2   ar
    18     2     3   ar
    19     3     4   ar
    20     4     7    1
    21     7     8    1
    22     8     9    1
    23     9    10    1
    24    10    13    1
    25    13    14   ar
    26    14    15   ar
    27    15    16   ar
    28    16    17    1
    29    16    18   ar
    30    18    19   ar
    31    10    11    1
    32    11    12    1
    33     4     5   ar
    34     5     6   ar
    35    34    25   ar
    36     6     1   ar
    37    33    27   ar
    38    12     7    1
    39    19    13   ar
    40    23    24    1
@<TRIPOS>MOLECULE
*****
 36 40 0 0 0
SMALL
GASTEIGER

@<TRIPOS>ATOM
      1 C           0.9912    2.7008   30.2312 C.ar    1  UNL1       -0.0025
      2 C           0.5560    3.1746   28.8762 C.ar    1  UNL1       -0.0014
      3 C           1.0150    2.4507   27.6453 C.ar    1  UNL1        0.0142
      4 C           1.9094    1.2529   27.7693 C.ar    1  UNL1        0.0479
      5 C           2.3446    0.7790   29.1242 C.ar    1  UNL1        0.0142
      6 C           1.8856    1.5029   30.3552 C.ar    1  UNL1       -0.0014
      7 N           2.3684    0.5290   26.5383 N.pl3   1  UNL1       -0.3041
      8 C           1.8057    0.8978   25.1977 C.3     1  UNL1        0.1122
      9 C           2.2648    0.1739   23.9667 C.3     1  UNL1        0.1122
     10 N           3.2864   -0.9189   24.0764 N.pl3   1  UNL1       -0.3041
     11 C           3.8491   -1.2877   25.4171 C.3     1  UNL1        0.1122
     12 C           3.3901   -0.5638   26.6480 C.3     1  UNL1        0.1122
     13 C           3.7455   -1.6428   22.8455 C.ar    1  UNL1        0.0481
     14 C           4.5888   -2.8767   22.9717 C.ar    1  UNL1        0.0168
     15 C           5.0479   -3.6007   21.7408 C.ar    1  UNL1        0.0309
     16 C           4.6635   -3.0906   20.3835 C.ar    1  UNL1        0.1402
     17 F           5.1226   -3.8145   19.1526 F       1  UNL1       -0.2042
     18 C           3.8202   -1.8566   20.2573 C.ar    1  UNL1        0.0309
     19 C           3.3611   -1.1327   21.4882 C.ar    1  UNL1        0.0168
     20 C           0.5322    3.4247   31.4621 C.3     1  UNL1        0.1166
     21 C           2.0301    3.6325   33.5747 C.2     1  UNL1        0.2635
     22 O           2.7109    4.8269   32.9745 O.2     1  UNL1       -0.2685
     23 N           0.9408    2.9315   32.8185 N.am    1  UNL1       -0.2957
     24 H           0.4941    2.1476   33.2124 H       1  UNL1        0.1501
     25 C           2.0554    3.7533   36.2449 C.ar    1  UNL1        0.0811
     26 N           2.6822    2.9389   37.3375 N.ar    1  UNL1       -0.2306
     27 C           3.4529    1.8216   36.6991 C.ar    1  UNL1        0.1475
     28 C           4.2722    0.7074   37.2798 C.ar    1  UNL1        0.0383
     29 C           4.9411   -0.2829   36.3733 C.ar    1  UNL1        0.0160
     30 C           4.7906   -0.1591   34.8860 C.ar    1  UNL1        0.0753
     31 CL          5.4595   -1.1495   33.9794 Cl      1  UNL1       -0.0807
     32 C           3.9712    0.9551   34.3052 C.ar    1  UNL1        0.0929
     33 N           3.3024    1.9454   35.2118 N.ar    1  UNL1       -0.2845
     34 C           2.4387    3.1393   34.9311 C.ar    1  UNL1        0.1326
     35 C           1.7524    6.3318   36.1474 C.3     1  UNL1        0.0067
     36 C           1.1962    4.9683   36.4330 C.3     1  UNL1        0.0475
@<TRIPOS>BOND
     1    35    36    1
     2    36    25    1
     3    25    26   ar
     4    26    27   ar
     5    27    28   ar
     6    28    29   ar
     7    29    30   ar
     8    30    31    1
     9    30    32   ar
    10    32    33   ar
    11    33    34   ar
    12    34    21    1
    13    21    22    2
    14    21    23   am
    15    23    20    1
    16    20     1    1
    17     1     2   ar
    18     2     3   ar
    19     3     4   ar
    20     4     7    1
    21     7     8    1
    22     8     9    1
    23     9    10    1
    24    10    13    1
    25    13    14   ar
    26    14    15   ar
    27    15    16   ar
    28    16    17    1
    29    16    18   ar
    30    18    19   ar
    31    10    11    1
    32    11    12    1
    33     4     5   ar
    34     5     6   ar
    35    34    25   ar
    36     6     1   ar
    37    33    27   ar
    38    12     7    1
    39    19    13   ar
    40    23    24    1
@<TRIPOS>MOLECULE
*****
 36 40 0 0 0
SMALL
GASTEIGER

@<TRIPOS>ATOM
      1 C           6.9520   -4.8000   29.5704 C.ar    1  UNL1       -0.0025
      2 C           7.0477   -5.2464   30.9992 C.ar    1  UNL1       -0.0014
      3 C           6.7478   -4.2818   32.1081 C.ar    1  UNL1        0.0142
      4 C           6.3522   -2.8707   31.7881 C.ar    1  UNL1        0.0479
      5 C           6.2565   -2.4243   30.3593 C.ar    1  UNL1        0.0142
      6 C           6.5564   -3.3889   29.2505 C.ar    1  UNL1       -0.0014
      7 N           6.0524   -1.9061   32.8970 N.pl3   1  UNL1       -0.3041
      8 C           4.6933   -1.8917   33.5315 C.3     1  UNL1        0.1122
      9 C           4.3934   -0.9271   34.6403 C.3     1  UNL1        0.1122
     10 N           5.4527    0.0232   35.1147 N.pl3   1  UNL1       -0.3041
     11 C           6.8118    0.0088   34.4802 C.3     1  UNL1        0.1122
     12 C           7.1116   -0.9558   33.3714 C.3     1  UNL1        0.1122
     13 C           5.1528    0.9878   36.2236 C.ar    1  UNL1        0.0481
     14 C           5.6958    2.3850   36.1696 C.ar    1  UNL1        0.0168
     15 C           5.3960    3.3496   37.2785 C.ar    1  UNL1        0.0309
     16 C           4.5531    2.9170   38.4414 C.ar    1  UNL1        0.1402
     17 F           4.2532    3.8816   39.5503 F       1  UNL1       -0.2042
     18 C           4.0100    1.5198   38.4954 C.ar    1  UNL1        0.0309
     19 C           4.3099    0.5552   37.3865 C.ar    1  UNL1        0.0168
     20 C           7.2518   -5.7646   28.4615 C.3     1  UNL1        0.1166
     21 C           7.5988   -4.7276   26.1048 C.2     1  UNL1        0.2635
     22 O           8.9524   -4.2334   26.5216 O.2     1  UNL1       -0.2685
     23 N           6.7486   -5.4932   27.0748 N.am    1  UNL1       -0.2957
     24 H           5.8602   -5.8176   26.8012 H       1  UNL1        0.1501
     25 C           7.5565   -5.1375   23.4637 C.ar    1  UNL1        0.0811
     26 N           6.7888   -4.5582   22.3127 N.ar    1  UNL1       -0.2306
     27 C           5.8534   -3.5188   22.8555 C.ar    1  UNL1        0.1475
     28 C           4.8536   -2.6216   22.1882 C.ar    1  UNL1        0.0383
     29 C           4.0433   -1.6613   23.0076 C.ar    1  UNL1        0.0160
     30 C           4.2329   -1.5983   24.4942 C.ar    1  UNL1        0.0753
     31 CL          3.4226   -0.6380   25.3136 Cl      1  UNL1       -0.0807
     32 C           5.2327   -2.4955   25.1615 C.ar    1  UNL1        0.0929
     33 N           6.0430   -3.4557   24.3422 N.ar    1  UNL1       -0.2845
     34 C           7.0955   -4.4562   24.7180 C.ar    1  UNL1        0.1326
     35 C           8.4029   -7.5114   24.0947 C.3     1  UNL1        0.0067
     36 C           8.6016   -6.2100   23.3759 C.3     1  UNL1        0.0475
@<TRIPOS>BOND
     1    35    36    1
     2    36    25    1
     3    25    26   ar
     4    26    27   ar
     5    27    28   ar
     6    28    29   ar
     7    29    30   ar
     8    30    31    1
     9    30    32   ar
    10    32    33   ar
    11    33    34   ar
    12    34    21    1
    13    21    22    2
    14    21    23   am
    15    23    20    1
    16    20     1    1
    17     1     2   ar
    18     2     3   ar
    19     3     4   ar
    20     4     7    1
    21     7     8    1
    22     8     9    1
    23     9    10    1
    24    10    13    1
    25    13    14   ar
    26    14    15   ar
    27    15    16   ar
    28    16    17    1
    29    16    18   ar
    30    18    19   ar
    31    10    11    1
    32    11    12    1
    33     4     5   ar
    34     5     6   ar
    35    34    25   ar
    36     6     1   ar
    37    33    27   ar
    38    12     7    1
    39    19    13   ar
    40    23    24    1
@<TRIPOS>MOLECULE
*****
 36 40 0 0 0
SMALL
GASTEIGER

@<TRIPOS>ATOM
      1 C          -3.5860    4.3075   24.4692 C.ar    1  UNL1       -0.0025
      2 C          -3.9270    4.4116   25.9262 C.ar    1  UNL1       -0.0014
      3 C          -3.0073    3.8244   26.9555 C.ar    1  UNL1        0.0142
      4 C          -1.7467    3.1331   26.5278 C.ar    1  UNL1        0.0479
      5 C          -1.4057    3.0291   25.0708 C.ar    1  UNL1        0.0142
      6 C          -2.3253    3.6163   24.0415 C.ar    1  UNL1       -0.0014
      7 N          -0.8271    2.5459   27.5572 N.pl3   1  UNL1       -0.3041
      8 C           0.2250    3.4016   28.1983 C.3     1  UNL1        0.1122
      9 C           1.1446    2.8144   29.2276 C.3     1  UNL1        0.1122
     10 N           1.0122    1.3716   29.6158 N.pl3   1  UNL1       -0.3041
     11 C          -0.0399    0.5159   28.9747 C.3     1  UNL1        0.1122
     12 C          -0.9595    1.1031   27.9454 C.3     1  UNL1        0.1122
     13 C           1.9318    0.7844   30.6451 C.ar    1  UNL1        0.0481
     14 C           2.1704    1.5075   31.9374 C.ar    1  UNL1        0.0168
     15 C           3.0900    0.9203   32.9668 C.ar    1  UNL1        0.0309
     16 C           3.7711   -0.3900   32.7038 C.ar    1  UNL1        0.1402
     17 F           4.6907   -0.9772   33.7331 F       1  UNL1       -0.2042
     18 C           3.5325   -1.1131   31.4114 C.ar    1  UNL1        0.0309
     19 C           2.6129   -0.5259   30.3821 C.ar    1  UNL1        0.0168
     20 C          -4.5056    4.8947   23.4399 C.3     1  UNL1        0.1166
     21 C          -4.2065    3.7310   21.1364 C.2     1  UNL1        0.2635
     22 O          -4.7513    2.4563   21.7096 O.2     1  UNL1       -0.2685
     23 N          -4.0837    4.9501   22.0015 N.am    1  UNL1       -0.2957
     24 H          -3.7261    5.7867   21.6253 H       1  UNL1        0.1501
     25 C          -4.6856    3.6354   18.5084 C.ar    1  UNL1        0.0811
     26 N          -3.8453    3.7582   17.2719 N.ar    1  UNL1       -0.2306
     27 C          -2.4249    3.9850   17.6973 C.ar    1  UNL1        0.1475
     28 C          -1.1609    4.1780   16.9131 C.ar    1  UNL1        0.0383
     29 C           0.1407    4.3883   17.6283 C.ar    1  UNL1        0.0160
     30 C           0.1783    4.4058   19.1278 C.ar    1  UNL1        0.0753
     31 CL          1.4799    4.6161   19.8430 Cl      1  UNL1       -0.0807
     32 C          -1.0857    4.2128   19.9120 C.ar    1  UNL1        0.0929
     33 N          -2.3873    4.0024   19.1968 N.ar    1  UNL1       -0.2845
     34 C          -3.7845    3.7864   19.6980 C.ar    1  UNL1        0.1326
     35 C          -7.0926    4.5233   18.9180 C.3     1  UNL1        0.0067
     36 C          -6.1669    3.4025   18.5482 C.3     1  UNL1        0.0475
@<TRIPOS>BOND
     1    35    36    1
     2    36    25    1
     3    25    26   ar
     4    26    27   ar
     5    27    28   ar
     6    28    29   ar
     7    29    30   ar
     8    30    31    1
     9    30    32   ar
    10    32    33   ar
    11    33    34   ar
    12    34    21    1
    13    21    22    2
    14    21    23   am
    15    23    20    1
    16    20     1    1
    17     1     2   ar
    18     2     3   ar
    19     3     4   ar
    20     4     7    1
    21     7     8    1
    22     8     9    1
    23     9    10    1
    24    10    13    1
    25    13    14   ar
    26    14    15   ar
    27    15    16   ar
    28    16    17    1
    29    16    18   ar
    30    18    19   ar
    31    10    11    1
    32    11    12    1
    33     4     5   ar
    34     5     6   ar
    35    34    25   ar
    36     6     1   ar
    37    33    27   ar
    38    12     7    1
    39    19    13   ar
    40    23    24    1
@<TRIPOS>MOLECULE
*****
 36 40 0 0 0
SMALL
GASTEIGER

@<TRIPOS>ATOM
      1 C           0.0366    1.9421   27.4882 C.ar    1  UNL1       -0.0025
      2 C           0.2472    3.3462   27.9721 C.ar    1  UNL1       -0.0014
      3 C           0.6563    3.5963   29.3934 C.ar    1  UNL1        0.0142
      4 C           0.8548    2.4422   30.3309 C.ar    1  UNL1        0.0479
      5 C           0.6443    1.0382   29.8469 C.ar    1  UNL1        0.0142
      6 C           0.2352    0.7881   28.4256 C.ar    1  UNL1       -0.0014
      7 N           1.2639    2.6923   31.7522 N.pl3   1  UNL1       -0.3041
      8 C           0.8068    3.9352   32.4565 C.3     1  UNL1        0.1122
      9 C           1.2159    4.1853   33.8778 C.3     1  UNL1        0.1122
     10 N           2.0820    3.1924   34.5948 N.pl3   1  UNL1       -0.3041
     11 C           2.5391    1.9494   33.8904 C.3     1  UNL1        0.1122
     12 C           2.1300    1.6994   32.4691 C.3     1  UNL1        0.1122
     13 C           2.4911    3.4424   36.0161 C.ar    1  UNL1        0.0481
     14 C           2.5600    2.3024   36.9884 C.ar    1  UNL1        0.0168
     15 C           2.9691    2.5524   38.4097 C.ar    1  UNL1        0.0309
     16 C           3.3093    3.9426   38.8587 C.ar    1  UNL1        0.1402
     17 F           3.7183    4.1927   40.2800 F       1  UNL1       -0.2042
     18 C           3.2403    5.0827   37.8864 C.ar    1  UNL1        0.0309
     19 C           2.8313    4.8326   36.4651 C.ar    1  UNL1        0.0168
     20 C          -0.3724    1.6921   26.0669 C.3     1  UNL1        0.1166
     21 C           1.7503    1.0034   24.7366 C.2     1  UNL1        0.2635
     22 O           2.3840    2.3228   25.0648 O.2     1  UNL1       -0.2685
     23 N           0.3722    0.6881   25.2377 N.am    1  UNL1       -0.2957
     24 H          -0.0437   -0.1779   25.0223 H       1  UNL1        0.1501
     25 C           3.4868   -1.0036   24.4176 C.ar    1  UNL1        0.0811
     26 N           3.9832   -1.8007   23.2479 N.ar    1  UNL1       -0.2306
     27 C           3.2981   -1.2905   22.0149 C.ar    1  UNL1        0.1475
     28 C           3.3930   -1.6952   20.5737 C.ar    1  UNL1        0.0383
     29 C           2.5680   -0.9874   19.5401 C.ar    1  UNL1        0.0160
     30 C           1.6482    0.1252   19.9477 C.ar    1  UNL1        0.0753
     31 CL          0.8232    0.8330   18.9140 Cl      1  UNL1       -0.0807
     32 C           1.5533    0.5299   21.3889 C.ar    1  UNL1        0.0929
     33 N           2.3783   -0.1780   22.4225 N.ar    1  UNL1       -0.2845
     34 C           2.4949   -0.0007   23.9074 C.ar    1  UNL1        0.1326
     35 C           5.3118   -0.8484   26.2602 C.3     1  UNL1        0.0067
     36 C           3.9083   -1.1786   25.8464 C.3     1  UNL1        0.0475
@<TRIPOS>BOND
     1    35    36    1
     2    36    25    1
     3    25    26   ar
     4    26    27   ar
     5    27    28   ar
     6    28    29   ar
     7    29    30   ar
     8    30    31    1
     9    30    32   ar
    10    32    33   ar
    11    33    34   ar
    12    34    21    1
    13    21    22    2
    14    21    23   am
    15    23    20    1
    16    20     1    1
    17     1     2   ar
    18     2     3   ar
    19     3     4   ar
    20     4     7    1
    21     7     8    1
    22     8     9    1
    23     9    10    1
    24    10    13    1
    25    13    14   ar
    26    14    15   ar
    27    15    16   ar
    28    16    17    1
    29    16    18   ar
    30    18    19   ar
    31    10    11    1
    32    11    12    1
    33     4     5   ar
    34     5     6   ar
    35    34    25   ar
    36     6     1   ar
    37    33    27   ar
    38    12     7    1
    39    19    13   ar
    40    23    24    1
@<TRIPOS>MOLECULE
*****
 36 40 0 0 0
SMALL
GASTEIGER

@<TRIPOS>ATOM
      1 C           0.7881    2.1391   29.9934 C.ar    1  UNL1       -0.0025
      2 C           0.5870    3.2009   28.9533 C.ar    1  UNL1       -0.0014
      3 C           0.8465    2.8940   27.5081 C.ar    1  UNL1        0.0142
      4 C           1.3071    1.5251   27.1031 C.ar    1  UNL1        0.0479
      5 C           1.5083    0.4633   28.1433 C.ar    1  UNL1        0.0142
      6 C           1.2488    0.7703   29.5884 C.ar    1  UNL1       -0.0014
      7 N           1.5666    1.2181   25.6580 N.pl3   1  UNL1       -0.3041
      8 C           0.6429    1.7474   24.6013 C.3     1  UNL1        0.1122
      9 C           0.9024    1.4404   23.1561 C.3     1  UNL1        0.1122
     10 N           2.0856    0.6042   22.7677 N.pl3   1  UNL1       -0.3041
     11 C           3.0092    0.0749   23.8244 C.3     1  UNL1        0.1122
     12 C           2.7498    0.3819   25.2696 C.3     1  UNL1        0.1122
     13 C           2.3451    0.2972   21.3226 C.ar    1  UNL1        0.0481
     14 C           2.8890   -1.0434   20.9265 C.ar    1  UNL1        0.0168
     15 C           3.1485   -1.3503   19.4814 C.ar    1  UNL1        0.0309
     16 C           2.8640   -0.3167   18.4322 C.ar    1  UNL1        0.1402
     17 F           3.1235   -0.6237   16.9871 F       1  UNL1       -0.2042
     18 C           2.3201    1.0239   18.8283 C.ar    1  UNL1        0.0309
     19 C           2.0606    1.3309   20.2735 C.ar    1  UNL1        0.0168
     20 C           0.5287    2.4461   31.4386 C.3     1  UNL1        0.1166
     21 C           2.6860    2.0021   32.8165 C.2     1  UNL1        0.2635
     22 O           3.3953    3.0817   32.0538 O.2     1  UNL1       -0.2685
     23 N           1.2527    1.6844   32.5089 N.am    1  UNL1       -0.2957
     24 H           0.7872    0.9759   33.0094 H       1  UNL1        0.1501
     25 C           4.0997   -0.0806   33.7158 C.ar    1  UNL1        0.0811
     26 N           4.6875   -0.4714   35.0393 N.ar    1  UNL1       -0.2306
     27 C           4.3611    0.6081   36.0284 C.ar    1  UNL1        0.1475
     28 C           4.6808    0.7644   37.4855 C.ar    1  UNL1        0.0383
     29 C           4.2110    1.9786   38.2304 C.ar    1  UNL1        0.0160
     30 C           3.4215    3.0366   37.5181 C.ar    1  UNL1        0.0753
     31 CL          2.9517    4.2509   38.2630 Cl      1  UNL1       -0.0807
     32 C           3.1018    2.8803   36.0609 C.ar    1  UNL1        0.0929
     33 N           3.5716    1.6661   35.3161 N.ar    1  UNL1       -0.2845
     34 C           3.4101    1.2404   33.8868 C.ar    1  UNL1        0.1326
     35 C           4.5462   -2.3273   32.4899 C.3     1  UNL1        0.0067
     36 C           4.1864   -0.8719   32.4444 C.3     1  UNL1        0.0475
@<TRIPOS>BOND
     1    35    36    1
     2    36    25    1
     3    25    26   ar
     4    26    27   ar
     5    27    28   ar
     6    28    29   ar
     7    29    30   ar
     8    30    31    1
     9    30    32   ar
    10    32    33   ar
    11    33    34   ar
    12    34    21    1
    13    21    22    2
    14    21    23   am
    15    23    20    1
    16    20     1    1
    17     1     2   ar
    18     2     3   ar
    19     3     4   ar
    20     4     7    1
    21     7     8    1
    22     8     9    1
    23     9    10    1
    24    10    13    1
    25    13    14   ar
    26    14    15   ar
    27    15    16   ar
    28    16    17    1
    29    16    18   ar
    30    18    19   ar
    31    10    11    1
    32    11    12    1
    33     4     5   ar
    34     5     6   ar
    35    34    25   ar
    36     6     1   ar
    37    33    27   ar
    38    12     7    1
    39    19    13   ar
    40    23    24    1
@<TRIPOS>MOLECULE
*****
 36 40 0 0 0
SMALL
GASTEIGER

@<TRIPOS>ATOM
      1 C           0.4858    1.9250   29.1337 C.ar    1  UNL1       -0.0025
      2 C          -0.5806    1.5089   28.1644 C.ar    1  UNL1       -0.0014
      3 C          -0.2184    1.1790   26.7467 C.ar    1  UNL1        0.0142
      4 C           1.2104    1.2652   26.2982 C.ar    1  UNL1        0.0479
      5 C           2.2769    1.6813   27.2674 C.ar    1  UNL1        0.0142
      6 C           1.9146    2.0111   28.6852 C.ar    1  UNL1       -0.0014
      7 N           1.5727    0.9353   24.8805 N.pl3   1  UNL1       -0.3041
      8 C           2.7483    0.0490   24.5936 C.3     1  UNL1        0.1122
      9 C           3.1106   -0.2809   23.1759 C.3     1  UNL1        0.1122
     10 N           2.2972    0.2755   22.0451 N.pl3   1  UNL1       -0.3041
     11 C           1.1215    1.1617   22.3319 C.3     1  UNL1        0.1122
     12 C           0.7593    1.4916   23.7496 C.3     1  UNL1        0.1122
     13 C           2.6595   -0.0544   20.6273 C.ar    1  UNL1        0.0481
     14 C           3.3427   -1.3515   20.3102 C.ar    1  UNL1        0.0168
     15 C           3.7050   -1.6814   18.8925 C.ar    1  UNL1        0.0309
     16 C           3.3840   -0.7142   17.7918 C.ar    1  UNL1        0.1402
     17 F           3.7462   -1.0441   16.3741 F       1  UNL1       -0.2042
     18 C           2.7007    0.5829   18.1090 C.ar    1  UNL1        0.0309
     19 C           2.3384    0.9128   19.5267 C.ar    1  UNL1        0.0168
     20 C           0.1235    2.2549   30.5514 C.3     1  UNL1        0.1166
     21 C           1.7512    2.6741   32.5325 C.2     1  UNL1        0.2635
     22 O           1.7097    4.1476   32.2547 O.2     1  UNL1       -0.2685
     23 N           0.9581    1.7278   31.6808 N.am    1  UNL1       -0.2957
     24 H           0.9854    0.7607   31.8631 H       1  UNL1        0.1501
     25 C           2.6607    2.7214   35.0456 C.ar    1  UNL1        0.0811
     26 N           3.6132    1.8824   35.8448 N.ar    1  UNL1       -0.2306
     27 C           4.1270    0.7895   34.9551 C.ar    1  UNL1        0.1475
     28 C           5.0910   -0.3335   35.1991 C.ar    1  UNL1        0.0383
     29 C           5.4200   -1.2929   34.0941 C.ar    1  UNL1        0.0160
     30 C           4.7850   -1.1294   32.7450 C.ar    1  UNL1        0.0753
     31 CL          5.1140   -2.0889   31.6399 Cl      1  UNL1       -0.0807
     32 C           3.8210   -0.0064   32.5010 C.ar    1  UNL1        0.0929
     33 N           3.4920    0.9530   33.6060 N.ar    1  UNL1       -0.2845
     34 C           2.5858    2.1470   33.6620 C.ar    1  UNL1        0.1326
     35 C           1.6267    4.0754   37.0071 C.3     1  UNL1        0.0067
     36 C           1.9142    3.9237   35.5427 C.3     1  UNL1        0.0475
@<TRIPOS>BOND
     1    35    36    1
     2    36    25    1
     3    25    26   ar
     4    26    27   ar
     5    27    28   ar
     6    28    29   ar
     7    29    30   ar
     8    30    31    1
     9    30    32   ar
    10    32    33   ar
    11    33    34   ar
    12    34    21    1
    13    21    22    2
    14    21    23   am
    15    23    20    1
    16    20     1    1
    17     1     2   ar
    18     2     3   ar
    19     3     4   ar
    20     4     7    1
    21     7     8    1
    22     8     9    1
    23     9    10    1
    24    10    13    1
    25    13    14   ar
    26    14    15   ar
    27    15    16   ar
    28    16    17    1
    29    16    18   ar
    30    18    19   ar
    31    10    11    1
    32    11    12    1
    33     4     5   ar
    34     5     6   ar
    35    34    25   ar
    36     6     1   ar
    37    33    27   ar
    38    12     7    1
    39    19    13   ar
    40    23    24    1
