@<TRIPOS>MOLECULE
*****
 40 43 0 0 0
SMALL
GASTEIGER

@<TRIPOS>ATOM
      1 C           3.8747   -1.7270   20.3140 C.3     1  UNL1        0.0692
      2 C           4.5758   -2.6361   21.2794 C.3     1  UNL1        0.0126
      3 C           4.4320   -2.4161   22.7562 C.3     1  UNL1        0.0269
      4 C           3.5872   -1.2869   23.2676 C.ar    1  UNL1       -0.0194
      5 C           3.4435   -1.0669   24.7444 C.ar    1  UNL1       -0.0026
      6 C           2.5987    0.0621   25.2557 C.ar    1  UNL1        0.0189
      7 C           1.8977    0.9712   24.2902 C.ar    1  UNL1        0.0016
      8 C           2.0414    0.7512   22.8134 C.ar    1  UNL1        0.0026
      9 C           2.8862   -0.3778   22.3021 C.ar    1  UNL1        0.0307
     10 C           3.0300   -0.5979   20.8253 C.2     1  UNL1        0.1726
     11 O           2.3290    0.3112   19.8598 O.2     1  UNL1       -0.2914
     12 C           2.4549    0.2822   26.7325 C.ar    1  UNL1        0.1005
     13 C           2.7753   -0.8265   27.6907 C.ar    1  UNL1        0.1194
     14 N           2.6316   -0.6066   29.1674 N.ar    1  UNL1       -0.2258
     15 C           2.1674    0.7222   29.6861 C.ar    1  UNL1        0.1547
     16 C           1.8470    1.8310   28.7280 C.ar    1  UNL1        0.1332
     17 N           1.9908    1.6109   27.2511 N.ar    1  UNL1       -0.2393
     18 N           2.0236    0.9422   31.1629 N.am    1  UNL1       -0.2521
     19 C           3.2266    0.8555   32.0547 C.2     1  UNL1        0.3093
     20 O           4.5734    0.5488   31.4698 O.2     1  UNL1       -0.2521
     21 N           3.0829    1.0755   33.5315 N.am    1  UNL1       -0.2680
     22 H           1.1397    1.1435   31.5468 H       1  UNL1        0.1579
     23 H           2.1990    1.2768   33.9154 H       1  UNL1        0.1564
     24 C           4.2858    0.9888   34.4233 C.ar    1  UNL1        0.0540
     25 C           4.6305   -0.3079   35.0938 C.ar    1  UNL1        0.0172
     26 C           5.8334   -0.3946   35.9857 C.ar    1  UNL1        0.0332
     27 C           6.6918    0.8154   36.2069 C.ar    1  UNL1        0.1675
     28 F           7.8948    0.7287   37.0987 F       1  UNL1       -0.2018
     29 C           6.3472    2.1123   35.5364 C.ar    1  UNL1        0.1686
     30 F           7.2055    3.3223   35.7576 F       1  UNL1       -0.2018
     31 C           5.1442    2.1990   34.6445 C.ar    1  UNL1        0.0467
     32 C           3.4112   -1.1391   19.0142 C.3     1  UNL1        0.0492
     33 O           5.5611    0.2274   18.5039 O.co2   1  UNL1       -0.5492
     34 C           4.4130   -0.6131   18.0293 C.2     1  UNL1        0.0508
     35 O           4.2664   -0.9276   16.5700 O.co2   1  UNL1       -0.5492
     36 C           4.5585   -2.6519   19.3513 C.3     1  UNL1        0.1109
     37 C           4.2212   -4.1135   19.3472 C.3     1  UNL1        0.3982
     38 F           3.8840   -5.5751   19.3431 F       1  UNL1       -0.1700
     39 F           2.7607   -3.7763   19.2925 F       1  UNL1       -0.1700
     40 F           5.6818   -4.4506   19.4019 F       1  UNL1       -0.1700
@<TRIPOS>UNITY_ATOM_ATTR
33 1
charge -1
@<TRIPOS>BOND
     1    33    34   ar
     2    34    35   ar
     3    34    32    1
     4     1    32    1
     5     1    36    1
     6    36    37    1
     7    37    38    1
     8    37    39    1
     9    37    40    1
    10     1     2    1
    11     2     3    1
    12     3     4    1
    13     4     5   ar
    14     5     6   ar
    15     6    12    1
    16    12    13   ar
    17    13    14   ar
    18    14    15   ar
    19    15    18    1
    20    18    19   am
    21    19    20    2
    22    19    21   am
    23    21    24    1
    24    24    25   ar
    25    25    26   ar
    26    26    27   ar
    27    27    28    1
    28    27    29   ar
    29    29    30    1
    30    29    31   ar
    31    15    16   ar
    32    16    17   ar
    33     6     7   ar
    34     7     8   ar
    35     8     9   ar
    36     9    10    1
    37    10    11    2
    38    10     1    1
    39     9     4   ar
    40    17    12   ar
    41    31    24   ar
    42    18    22    1
    43    21    23    1
@<TRIPOS>MOLECULE
*****
 40 43 0 0 0
SMALL
GASTEIGER

@<TRIPOS>ATOM
      1 C           3.9252   -2.0696   20.0492 C.3     1  UNL1        0.0692
      2 C           4.6022   -3.1937   20.7757 C.3     1  UNL1        0.0126
      3 C           4.6731   -3.1835   22.2740 C.3     1  UNL1        0.0269
      4 C           4.0669   -2.0491   23.0458 C.ar    1  UNL1       -0.0194
      5 C           4.1378   -2.0389   24.5441 C.ar    1  UNL1       -0.0026
      6 C           3.5316   -0.9046   25.3159 C.ar    1  UNL1        0.0189
      7 C           2.8545    0.2196   24.5894 C.ar    1  UNL1        0.0016
      8 C           2.7836    0.2094   23.0911 C.ar    1  UNL1        0.0026
      9 C           3.3898   -0.9249   22.3193 C.ar    1  UNL1        0.0307
     10 C           3.3190   -0.9352   20.8210 C.2     1  UNL1        0.1726
     11 O           2.6419    0.1890   20.0945 O.2     1  UNL1       -0.2914
     12 C           3.6025   -0.8943   26.8142 C.ar    1  UNL1        0.1005
     13 C           2.3894   -0.5349   27.6199 C.ar    1  UNL1        0.1194
     14 N           2.4602   -0.5247   29.1182 N.ar    1  UNL1       -0.2258
     15 C           3.7441   -0.8738   29.8108 C.ar    1  UNL1        0.1547
     16 C           4.9572   -1.2332   29.0051 C.ar    1  UNL1        0.1332
     17 N           4.8864   -1.2434   27.5067 N.ar    1  UNL1       -0.2393
     18 N           3.8150   -0.8636   31.3091 N.am    1  UNL1       -0.2521
     19 C           3.7410    0.4360   32.0545 C.2     1  UNL1        0.3093
     20 O           3.5963    1.7253   31.3017 O.2     1  UNL1       -0.2521
     21 N           3.8118    0.4462   33.5528 N.am    1  UNL1       -0.2680
     22 H           3.9100   -1.7098   31.8032 H       1  UNL1        0.1579
     23 H           3.9068   -0.4000   34.0469 H       1  UNL1        0.1564
     24 C           3.7379    1.7458   34.2983 C.ar    1  UNL1        0.0540
     25 C           4.9867    2.3642   34.8532 C.ar    1  UNL1        0.0172
     26 C           4.9128    3.6637   35.5987 C.ar    1  UNL1        0.0332
     27 C           3.5900    4.3448   35.7892 C.ar    1  UNL1        0.1675
     28 F           3.5161    5.6444   36.5347 F       1  UNL1       -0.2018
     29 C           2.3411    3.7264   35.2343 C.ar    1  UNL1        0.1686
     30 F           1.0184    4.4075   35.4248 F       1  UNL1       -0.2018
     31 C           2.4151    2.4269   34.4888 C.ar    1  UNL1        0.0467
     32 C           3.3946   -1.2392   18.9183 C.3     1  UNL1        0.0492
     33 O           5.6474   -0.1762   18.1799 O.co2   1  UNL1       -0.5492
     34 C           4.3178   -0.7762   17.8304 C.2     1  UNL1        0.0508
     35 O           3.9113   -0.9133   16.3930 O.co2   1  UNL1       -0.5492
     36 C           4.3471   -2.9156   18.8847 C.3     1  UNL1        0.1109
     37 C           4.2830   -4.4110   18.9817 C.3     1  UNL1        0.3982
     38 F           4.2191   -5.9066   19.0788 F       1  UNL1       -0.1700
     39 F           2.7845   -4.3475   18.9736 F       1  UNL1       -0.1700
     40 F           5.7817   -4.4746   18.9899 F       1  UNL1       -0.1700
@<TRIPOS>UNITY_ATOM_ATTR
33 1
charge -1
@<TRIPOS>BOND
     1    33    34   ar
     2    34    35   ar
     3    34    32    1
     4     1    32    1
     5     1    36    1
     6    36    37    1
     7    37    38    1
     8    37    39    1
     9    37    40    1
    10     1     2    1
    11     2     3    1
    12     3     4    1
    13     4     5   ar
    14     5     6   ar
    15     6    12    1
    16    12    13   ar
    17    13    14   ar
    18    14    15   ar
    19    15    18    1
    20    18    19   am
    21    19    20    2
    22    19    21   am
    23    21    24    1
    24    24    25   ar
    25    25    26   ar
    26    26    27   ar
    27    27    28    1
    28    27    29   ar
    29    29    30    1
    30    29    31   ar
    31    15    16   ar
    32    16    17   ar
    33     6     7   ar
    34     7     8   ar
    35     8     9   ar
    36     9    10    1
    37    10    11    2
    38    10     1    1
    39     9     4   ar
    40    17    12   ar
    41    31    24   ar
    42    18    22    1
    43    21    23    1
@<TRIPOS>MOLECULE
*****
 40 43 0 0 0
SMALL
GASTEIGER

@<TRIPOS>ATOM
      1 C           2.8659   -0.2828   22.0205 C.3     1  UNL1        0.0692
      2 C           3.6021   -1.5399   22.3780 C.3     1  UNL1        0.0126
      3 C           3.8854   -1.8600   23.8158 C.3     1  UNL1        0.0269
      4 C           3.4326   -0.9230   24.8961 C.ar    1  UNL1       -0.0194
      5 C           3.7159   -1.2431   26.3339 C.ar    1  UNL1       -0.0026
      6 C           3.2630   -0.3061   27.4141 C.ar    1  UNL1        0.0189
      7 C           2.5269    0.9510   27.0566 C.ar    1  UNL1        0.0016
      8 C           2.2436    1.2711   25.6188 C.ar    1  UNL1        0.0026
      9 C           2.6964    0.3341   24.5386 C.ar    1  UNL1        0.0307
     10 C           2.4131    0.6542   23.1007 C.2     1  UNL1        0.1726
     11 O           1.6769    1.9113   22.7432 O.2     1  UNL1       -0.2914
     12 C           3.5464   -0.6262   28.8520 C.ar    1  UNL1        0.1005
     13 C           2.4546   -0.5143   29.8744 C.ar    1  UNL1        0.1194
     14 N           2.7378   -0.8343   31.3122 N.ar    1  UNL1       -0.2258
     15 C           4.1129   -1.2664   31.7276 C.ar    1  UNL1        0.1547
     16 C           5.2047   -1.3783   30.7052 C.ar    1  UNL1        0.1332
     17 N           4.9214   -1.0582   29.2673 N.ar    1  UNL1       -0.2393
     18 N           4.3962   -1.5864   33.1654 N.am    1  UNL1       -0.2521
     19 C           4.4970   -0.4808   34.1741 C.2     1  UNL1        0.3093
     20 O           4.3147    0.9449   33.7450 O.2     1  UNL1       -0.2521
     21 N           4.7803   -0.8009   35.6119 N.am    1  UNL1       -0.2680
     22 H           4.5159   -2.5221   33.4471 H       1  UNL1        0.1579
     23 H           4.9000   -1.7366   35.8935 H       1  UNL1        0.1564
     24 C           4.8812    0.3048   36.6206 C.ar    1  UNL1        0.0540
     25 C           6.2076    0.9475   36.8988 C.ar    1  UNL1        0.0172
     26 C           6.3085    2.0531   37.9075 C.ar    1  UNL1        0.0332
     27 C           5.0829    2.5160   38.6380 C.ar    1  UNL1        0.1675
     28 F           5.1838    3.6216   39.6466 F       1  UNL1       -0.2018
     29 C           3.7564    1.8732   38.3598 C.ar    1  UNL1        0.1686
     30 F           2.5308    2.3361   39.0903 F       1  UNL1       -0.2018
     31 C           3.6555    0.7676   37.3511 C.ar    1  UNL1        0.0467
     32 C           2.2076    0.7766   21.1873 C.3     1  UNL1        0.0492
     33 O          -0.1878   -0.1526   20.8019 O.co2   1  UNL1       -0.5492
     34 C           1.0902    0.4115   20.2555 C.2     1  UNL1        0.0508
     35 O           1.2509    0.6103   18.7774 O.co2   1  UNL1       -0.5492
     36 C           3.0901   -0.8519   20.6509 C.3     1  UNL1        0.1109
     37 C           4.4830   -1.1529   20.1825 C.3     1  UNL1        0.3982
     38 F           5.8759   -1.4538   19.7141 F       1  UNL1       -0.1700
     39 F           4.0312   -2.5012   19.7052 F       1  UNL1       -0.1700
     40 F           4.9348    0.1955   20.6598 F       1  UNL1       -0.1700
@<TRIPOS>UNITY_ATOM_ATTR
33 1
charge -1
@<TRIPOS>BOND
     1    33    34   ar
     2    34    35   ar
     3    34    32    1
     4     1    32    1
     5     1    36    1
     6    36    37    1
     7    37    38    1
     8    37    39    1
     9    37    40    1
    10     1     2    1
    11     2     3    1
    12     3     4    1
    13     4     5   ar
    14     5     6   ar
    15     6    12    1
    16    12    13   ar
    17    13    14   ar
    18    14    15   ar
    19    15    18    1
    20    18    19   am
    21    19    20    2
    22    19    21   am
    23    21    24    1
    24    24    25   ar
    25    25    26   ar
    26    26    27   ar
    27    27    28    1
    28    27    29   ar
    29    29    30    1
    30    29    31   ar
    31    15    16   ar
    32    16    17   ar
    33     6     7   ar
    34     7     8   ar
    35     8     9   ar
    36     9    10    1
    37    10    11    2
    38    10     1    1
    39     9     4   ar
    40    17    12   ar
    41    31    24   ar
    42    18    22    1
    43    21    23    1
@<TRIPOS>MOLECULE
*****
 40 43 0 0 0
SMALL
GASTEIGER

@<TRIPOS>ATOM
      1 C           3.5873    1.4562   35.7201 C.3     1  UNL1        0.0692
      2 C           4.2105    0.4119   34.8420 C.3     1  UNL1        0.0126
      3 C           3.8228    0.3192   33.3960 C.3     1  UNL1        0.0269
      4 C           2.8119    1.2709   32.8280 C.ar    1  UNL1       -0.0194
      5 C           2.4242    1.1782   31.3819 C.ar    1  UNL1       -0.0026
      6 C           1.4134    2.1298   30.8140 C.ar    1  UNL1        0.0189
      7 C           0.7903    3.1741   31.6921 C.ar    1  UNL1        0.0016
      8 C           1.1779    3.2668   33.1382 C.ar    1  UNL1        0.0026
      9 C           2.1888    2.3152   33.7061 C.ar    1  UNL1        0.0307
     10 C           2.5765    2.4079   35.1522 C.2     1  UNL1        0.1726
     11 O           1.9533    3.4522   36.0303 O.2     1  UNL1       -0.2914
     12 C           1.0257    2.0372   29.3679 C.ar    1  UNL1        0.1005
     13 C           1.5896    3.0112   28.3763 C.ar    1  UNL1        0.1194
     14 N           1.2020    2.9186   26.9303 N.ar    1  UNL1       -0.2258
     15 C           0.2503    1.8519   26.4758 C.ar    1  UNL1        0.1547
     16 C          -0.3137    0.8778   27.4673 C.ar    1  UNL1        0.1332
     17 N           0.0741    0.9705   28.9134 N.ar    1  UNL1       -0.2393
     18 N          -0.1374    1.7593   25.0297 N.am    1  UNL1       -0.2521
     19 C           0.8850    1.3727   24.0024 C.2     1  UNL1        0.3093
     20 O           2.2950    1.0787   24.4211 O.2     1  UNL1       -0.2521
     21 N           0.4973    1.2800   22.5564 N.am    1  UNL1       -0.2680
     22 H          -1.0628    1.9522   24.7549 H       1  UNL1        0.1579
     23 H          -0.4282    1.4730   22.2815 H       1  UNL1        0.1564
     24 C           1.5196    0.8935   21.5291 C.ar    1  UNL1        0.0540
     25 C           2.4171    1.9377   20.9341 C.ar    1  UNL1        0.0172
     26 C           3.4394    1.5511   19.9068 C.ar    1  UNL1        0.0332
     27 C           3.5643    0.1203   19.4744 C.ar    1  UNL1        0.1675
     28 F           4.5866   -0.2663   18.4471 F       1  UNL1       -0.2018
     29 C           2.6668   -0.9241   20.0694 C.ar    1  UNL1        0.1686
     30 F           2.7917   -2.3550   19.6371 F       1  UNL1       -0.2018
     31 C           1.6445   -0.5375   21.0967 C.ar    1  UNL1        0.0467
     32 C           3.2779    2.2680   36.9429 C.3     1  UNL1        0.0492
     33 O           3.7042    1.5755   39.4105 O.co2   1  UNL1       -0.5492
     34 C           2.8200    1.5874   38.1989 C.2     1  UNL1        0.0508
     35 O           1.4779    0.9188   38.2430 O.co2   1  UNL1       -0.5492
     36 C           4.4907    0.7865   36.7128 C.3     1  UNL1        0.1109
     37 C           5.9763    0.8035   36.5057 C.3     1  UNL1        0.3982
     38 F           7.4618    0.8206   36.2986 F       1  UNL1       -0.1700
     39 F           6.0530   -0.6307   36.9382 F       1  UNL1       -0.1700
     40 F           5.8994    2.2378   36.0732 F       1  UNL1       -0.1700
@<TRIPOS>UNITY_ATOM_ATTR
33 1
charge -1
@<TRIPOS>BOND
     1    33    34   ar
     2    34    35   ar
     3    34    32    1
     4     1    32    1
     5     1    36    1
     6    36    37    1
     7    37    38    1
     8    37    39    1
     9    37    40    1
    10     1     2    1
    11     2     3    1
    12     3     4    1
    13     4     5   ar
    14     5     6   ar
    15     6    12    1
    16    12    13   ar
    17    13    14   ar
    18    14    15   ar
    19    15    18    1
    20    18    19   am
    21    19    20    2
    22    19    21   am
    23    21    24    1
    24    24    25   ar
    25    25    26   ar
    26    26    27   ar
    27    27    28    1
    28    27    29   ar
    29    29    30    1
    30    29    31   ar
    31    15    16   ar
    32    16    17   ar
    33     6     7   ar
    34     7     8   ar
    35     8     9   ar
    36     9    10    1
    37    10    11    2
    38    10     1    1
    39     9     4   ar
    40    17    12   ar
    41    31    24   ar
    42    18    22    1
    43    21    23    1
@<TRIPOS>MOLECULE
*****
 40 43 0 0 0
SMALL
GASTEIGER

@<TRIPOS>ATOM
      1 C           3.9251   -2.2439   20.1304 C.3     1  UNL1        0.0692
      2 C           4.7052   -3.1394   21.0466 C.3     1  UNL1        0.0126
      3 C           4.7211   -2.8719   22.5225 C.3     1  UNL1        0.0269
      4 C           3.9568   -1.7088   23.0822 C.ar    1  UNL1       -0.0194
      5 C           3.9727   -1.4413   24.5580 C.ar    1  UNL1       -0.0026
      6 C           3.2085   -0.2782   25.1176 C.ar    1  UNL1        0.0189
      7 C           2.4284    0.6173   24.2014 C.ar    1  UNL1        0.0016
      8 C           2.4125    0.3498   22.7255 C.ar    1  UNL1        0.0026
      9 C           3.1767   -0.8133   22.1659 C.ar    1  UNL1        0.0307
     10 C           3.1609   -1.0809   20.6900 C.2     1  UNL1        0.1726
     11 O           2.3808   -0.1853   19.7738 O.2     1  UNL1       -0.2914
     12 C           3.2243   -0.0106   26.5935 C.ar    1  UNL1        0.1005
     13 C           3.7839    1.2793   27.1159 C.ar    1  UNL1        0.1194
     14 N           3.7998    1.5469   28.5917 N.ar    1  UNL1       -0.2258
     15 C           3.2560    0.5245   29.5452 C.ar    1  UNL1        0.1547
     16 C           2.6964   -0.7654   29.0229 C.ar    1  UNL1        0.1332
     17 N           2.6806   -1.0330   27.5470 N.ar    1  UNL1       -0.2393
     18 N           3.2719    0.7922   31.0210 N.am    1  UNL1       -0.2521
     19 C           2.5151    1.9606   31.5796 C.2     1  UNL1        0.3093
     20 O           1.7425    2.8615   30.6623 O.2     1  UNL1       -0.2521
     21 N           2.5310    2.2283   33.0554 N.am    1  UNL1       -0.2680
     22 H           3.7790    0.2009   31.6231 H       1  UNL1        0.1579
     23 H           3.0381    1.6370   33.6575 H       1  UNL1        0.1564
     24 C           1.7742    3.3967   33.6139 C.ar    1  UNL1        0.0540
     25 C           2.1544    3.9682   34.9477 C.ar    1  UNL1        0.0172
     26 C           1.3976    5.1367   35.5062 C.ar    1  UNL1        0.0332
     27 C           0.2607    5.7337   34.7310 C.ar    1  UNL1        0.1675
     28 F          -0.4960    6.9022   35.2896 F       1  UNL1       -0.2018
     29 C          -0.1195    5.1623   33.3972 C.ar    1  UNL1        0.1686
     30 F          -1.2563    5.7593   32.6220 F       1  UNL1       -0.2018
     31 C           0.6373    3.9938   32.8387 C.ar    1  UNL1        0.0467
     32 C           3.3398   -1.6849   18.8675 C.3     1  UNL1        0.0492
     33 O           3.8860   -1.2448   16.3659 O.co2   1  UNL1       -0.5492
     34 C           4.2393   -1.1041   17.8169 C.2     1  UNL1        0.0508
     35 O           5.4920   -0.3827   18.2174 O.co2   1  UNL1       -0.5492
     36 C           4.4861   -3.2129   19.1322 C.3     1  UNL1        0.1109
     37 C           4.1869   -4.6773   19.2584 C.3     1  UNL1        0.3982
     38 F           3.8876   -6.1417   19.3846 F       1  UNL1       -0.1700
     39 F           5.6560   -4.9712   19.3316 F       1  UNL1       -0.1700
     40 F           2.7178   -4.3833   19.1852 F       1  UNL1       -0.1700
@<TRIPOS>UNITY_ATOM_ATTR
33 1
charge -1
@<TRIPOS>BOND
     1    33    34   ar
     2    34    35   ar
     3    34    32    1
     4     1    32    1
     5     1    36    1
     6    36    37    1
     7    37    38    1
     8    37    39    1
     9    37    40    1
    10     1     2    1
    11     2     3    1
    12     3     4    1
    13     4     5   ar
    14     5     6   ar
    15     6    12    1
    16    12    13   ar
    17    13    14   ar
    18    14    15   ar
    19    15    18    1
    20    18    19   am
    21    19    20    2
    22    19    21   am
    23    21    24    1
    24    24    25   ar
    25    25    26   ar
    26    26    27   ar
    27    27    28    1
    28    27    29   ar
    29    29    30    1
    30    29    31   ar
    31    15    16   ar
    32    16    17   ar
    33     6     7   ar
    34     7     8   ar
    35     8     9   ar
    36     9    10    1
    37    10    11    2
    38    10     1    1
    39     9     4   ar
    40    17    12   ar
    41    31    24   ar
    42    18    22    1
    43    21    23    1
@<TRIPOS>MOLECULE
*****
 40 43 0 0 0
SMALL
GASTEIGER

@<TRIPOS>ATOM
      1 C           3.7042    1.8417   36.8805 C.3     1  UNL1        0.0692
      2 C           2.8108    2.6572   35.9935 C.3     1  UNL1        0.0126
      3 C           2.6834    2.3148   34.5387 C.3     1  UNL1        0.0269
      4 C           3.4494    1.1568   33.9709 C.ar    1  UNL1       -0.0194
      5 C           3.3219    0.8144   32.5161 C.ar    1  UNL1       -0.0026
      6 C           4.0879   -0.3435   31.9483 C.ar    1  UNL1        0.0189
      7 C           4.9814   -1.1590   32.8353 C.ar    1  UNL1        0.0016
      8 C           5.1088   -0.8166   34.2901 C.ar    1  UNL1        0.0026
      9 C           4.3428    0.3413   34.8579 C.ar    1  UNL1        0.0307
     10 C           4.4702    0.6838   36.3127 C.2     1  UNL1        0.1726
     11 O           5.3636   -0.1317   37.1997 O.2     1  UNL1       -0.2914
     12 C           3.9605   -0.6860   30.4934 C.ar    1  UNL1        0.1005
     13 C           2.6253   -0.5960   29.8159 C.ar    1  UNL1        0.1194
     14 N           2.4978   -0.9385   28.3611 N.ar    1  UNL1       -0.2258
     15 C           3.7057   -1.3709   27.5838 C.ar    1  UNL1        0.1547
     16 C           5.0409   -1.4608   28.2613 C.ar    1  UNL1        0.1332
     17 N           5.1683   -1.1184   29.7161 N.ar    1  UNL1       -0.2393
     18 N           3.5782   -1.7133   26.1290 N.am    1  UNL1       -0.2521
     19 C           3.3784   -0.6244   25.1168 C.2     1  UNL1        0.3093
     20 O           3.3061    0.8069   25.5595 O.2     1  UNL1       -0.2521
     21 N           3.2510   -0.9669   23.6621 N.am    1  UNL1       -0.2680
     22 H           3.6257   -2.6528   25.8384 H       1  UNL1        0.1579
     23 H           3.2985   -1.9063   23.3715 H       1  UNL1        0.1564
     24 C           3.0512    0.1220   22.6499 C.ar    1  UNL1        0.0540
     25 C           1.7259    0.8171   22.5479 C.ar    1  UNL1        0.0172
     26 C           1.5261    1.9060   21.5358 C.ar    1  UNL1        0.0332
     27 C           2.6515    2.2998   20.6257 C.ar    1  UNL1        0.1675
     28 F           2.4517    3.3887   19.6136 F       1  UNL1       -0.2018
     29 C           3.9769    1.6046   20.7277 C.ar    1  UNL1        0.1686
     30 F           5.1023    1.9984   19.8176 F       1  UNL1       -0.2018
     31 C           4.1767    0.5158   21.7398 C.ar    1  UNL1        0.0467
     32 C           4.4176    1.3717   38.1134 C.3     1  UNL1        0.0492
     33 O           5.2213    2.4868   40.3181 O.co2   1  UNL1       -0.5492
     34 C           5.3534    2.2947   38.8363 C.2     1  UNL1        0.0508
     35 O           6.4212    3.0254   38.0774 O.co2   1  UNL1       -0.5492
     36 C           3.1860    2.8364   37.8765 C.3     1  UNL1        0.1109
     37 C           1.7176    2.9032   38.1754 C.3     1  UNL1        0.3982
     38 F           0.2492    2.9701   38.4743 F       1  UNL1       -0.1700
     39 F           1.7136    1.4354   38.4844 F       1  UNL1       -0.1700
     40 F           1.7216    4.3711   37.8664 F       1  UNL1       -0.1700
@<TRIPOS>UNITY_ATOM_ATTR
33 1
charge -1
@<TRIPOS>BOND
     1    33    34   ar
     2    34    35   ar
     3    34    32    1
     4     1    32    1
     5     1    36    1
     6    36    37    1
     7    37    38    1
     8    37    39    1
     9    37    40    1
    10     1     2    1
    11     2     3    1
    12     3     4    1
    13     4     5   ar
    14     5     6   ar
    15     6    12    1
    16    12    13   ar
    17    13    14   ar
    18    14    15   ar
    19    15    18    1
    20    18    19   am
    21    19    20    2
    22    19    21   am
    23    21    24    1
    24    24    25   ar
    25    25    26   ar
    26    26    27   ar
    27    27    28    1
    28    27    29   ar
    29    29    30    1
    30    29    31   ar
    31    15    16   ar
    32    16    17   ar
    33     6     7   ar
    34     7     8   ar
    35     8     9   ar
    36     9    10    1
    37    10    11    2
    38    10     1    1
    39     9     4   ar
    40    17    12   ar
    41    31    24   ar
    42    18    22    1
    43    21    23    1
@<TRIPOS>MOLECULE
*****
 40 43 0 0 0
SMALL
GASTEIGER

@<TRIPOS>ATOM
      1 C          -3.3937    4.2368   24.0676 C.3     1  UNL1        0.0692
      2 C          -3.9380    4.1739   25.4639 C.3     1  UNL1        0.0126
      3 C          -3.1597    3.4791   26.5417 C.3     1  UNL1        0.0269
      4 C          -1.8371    2.8473   26.2231 C.ar    1  UNL1       -0.0194
      5 C          -1.0588    2.1526   27.3009 C.ar    1  UNL1       -0.0026
      6 C           0.2638    1.5208   26.9823 C.ar    1  UNL1        0.0189
      7 C           0.8081    1.5837   25.5860 C.ar    1  UNL1        0.0016
      8 C           0.0298    2.2785   24.5082 C.ar    1  UNL1        0.0026
      9 C          -1.2927    2.9102   24.8268 C.ar    1  UNL1        0.0307
     10 C          -2.0711    3.6050   23.7490 C.2     1  UNL1        0.1726
     11 O          -1.5268    3.6680   22.3527 O.2     1  UNL1       -0.2914
     12 C           1.0422    0.8260   28.0601 C.ar    1  UNL1        0.1005
     13 C           0.5673    0.8804   29.4819 C.ar    1  UNL1        0.1194
     14 N           1.3455    0.1856   30.5596 N.ar    1  UNL1       -0.2258
     15 C           2.5988   -0.5635   30.2156 C.ar    1  UNL1        0.1547
     16 C           3.0737   -0.6178   28.7938 C.ar    1  UNL1        0.1332
     17 N           2.2953    0.0769   27.7160 N.ar    1  UNL1       -0.2393
     18 N           3.3771   -1.2582   31.2934 N.am    1  UNL1       -0.2521
     19 C           3.9482   -0.4686   32.4337 C.2     1  UNL1        0.3093
     20 O           3.7411    1.0156   32.4963 O.2     1  UNL1       -0.2521
     21 N           4.7265   -1.1634   33.5114 N.am    1  UNL1       -0.2680
     22 H           3.5130   -2.2324   31.2523 H       1  UNL1        0.1579
     23 H           4.8625   -2.1376   33.4704 H       1  UNL1        0.1564
     24 C           5.2977   -0.3738   34.6518 C.ar    1  UNL1        0.0540
     25 C           6.6575    0.2470   34.5274 C.ar    1  UNL1        0.0172
     26 C           7.2287    1.0366   35.6677 C.ar    1  UNL1        0.0332
     27 C           6.4401    1.2053   36.9324 C.ar    1  UNL1        0.1675
     28 F           7.0112    1.9949   38.0727 F       1  UNL1       -0.2018
     29 C           5.0802    0.5845   37.0569 C.ar    1  UNL1        0.1686
     30 F           4.2916    0.7532   38.3216 F       1  UNL1       -0.2018
     31 C           4.5090   -0.2051   35.9166 C.ar    1  UNL1        0.0467
     32 C          -3.2971    4.5579   22.6056 C.3     1  UNL1        0.0492
     33 O          -4.6665    2.5508   21.6857 O.co2   1  UNL1       -0.5492
     34 C          -4.3125    4.0079   21.6482 C.2     1  UNL1        0.0508
     35 O          -4.9739    4.9152   20.6534 O.co2   1  UNL1       -0.5492
     36 C          -4.6828    4.9801   23.8784 C.3     1  UNL1        0.1109
     37 C          -5.0268    6.1270   24.7819 C.3     1  UNL1        0.3982
     38 F          -5.3708    7.2740   25.6853 F       1  UNL1       -0.1700
     39 F          -6.3772    5.5243   25.0330 F       1  UNL1       -0.1700
     40 F          -3.6764    6.7298   24.5307 F       1  UNL1       -0.1700
@<TRIPOS>UNITY_ATOM_ATTR
33 1
charge -1
@<TRIPOS>BOND
     1    33    34   ar
     2    34    35   ar
     3    34    32    1
     4     1    32    1
     5     1    36    1
     6    36    37    1
     7    37    38    1
     8    37    39    1
     9    37    40    1
    10     1     2    1
    11     2     3    1
    12     3     4    1
    13     4     5   ar
    14     5     6   ar
    15     6    12    1
    16    12    13   ar
    17    13    14   ar
    18    14    15   ar
    19    15    18    1
    20    18    19   am
    21    19    20    2
    22    19    21   am
    23    21    24    1
    24    24    25   ar
    25    25    26   ar
    26    26    27   ar
    27    27    28    1
    28    27    29   ar
    29    29    30    1
    30    29    31   ar
    31    15    16   ar
    32    16    17   ar
    33     6     7   ar
    34     7     8   ar
    35     8     9   ar
    36     9    10    1
    37    10    11    2
    38    10     1    1
    39     9     4   ar
    40    17    12   ar
    41    31    24   ar
    42    18    22    1
    43    21    23    1
@<TRIPOS>MOLECULE
*****
 40 43 0 0 0
SMALL
GASTEIGER

@<TRIPOS>ATOM
      1 C           3.7792    1.4643   35.8135 C.3     1  UNL1        0.0692
      2 C           4.2198    0.4086   34.8432 C.3     1  UNL1        0.0126
      3 C           3.6785    0.4028   33.4443 C.3     1  UNL1        0.0269
      4 C           2.6966    1.4527   33.0157 C.ar    1  UNL1       -0.0194
      5 C           2.1553    1.4468   31.6168 C.ar    1  UNL1       -0.0026
      6 C           1.1734    2.4967   31.1882 C.ar    1  UNL1        0.0189
      7 C           0.7328    3.5523   32.1585 C.ar    1  UNL1        0.0016
      8 C           1.2741    3.5581   33.5574 C.ar    1  UNL1        0.0026
      9 C           2.2560    2.5083   33.9859 C.ar    1  UNL1        0.0307
     10 C           2.7974    2.5141   35.3849 C.2     1  UNL1        0.1726
     11 O           2.3568    3.5698   36.3552 O.2     1  UNL1       -0.2914
     12 C           0.6321    2.4909   29.7892 C.ar    1  UNL1        0.1005
     13 C          -0.1882    1.3311   29.3073 C.ar    1  UNL1        0.1194
     14 N          -0.7295    1.3253   27.9084 N.ar    1  UNL1       -0.2258
     15 C          -0.4506    2.4792   26.9914 C.ar    1  UNL1        0.1547
     16 C           0.3696    3.6389   27.4734 C.ar    1  UNL1        0.1332
     17 N           0.9109    3.6447   28.8723 N.ar    1  UNL1       -0.2393
     18 N          -0.9920    2.4734   25.5926 N.am    1  UNL1       -0.2521
     19 C          -2.1768    3.3244   25.2433 C.2     1  UNL1        0.3093
     20 O          -2.8203    4.1812   26.2929 O.2     1  UNL1       -0.2521
     21 N          -2.7182    3.3185   23.8444 N.am    1  UNL1       -0.2680
     22 H          -0.5696    1.9110   24.9036 H       1  UNL1        0.1579
     23 H          -2.2958    2.7562   23.1555 H       1  UNL1        0.1564
     24 C          -3.9030    4.1695   23.4952 C.ar    1  UNL1        0.0540
     25 C          -3.7099    5.6130   23.1362 C.ar    1  UNL1        0.0172
     26 C          -4.8947    6.4640   22.7869 C.ar    1  UNL1        0.0332
     27 C          -6.2727    5.8715   22.7967 C.ar    1  UNL1        0.1675
     28 F          -7.4575    6.7225   22.4474 F       1  UNL1       -0.2018
     29 C          -6.4658    4.4279   23.1557 C.ar    1  UNL1        0.1686
     30 F          -7.8438    3.8354   23.1654 F       1  UNL1       -0.2018
     31 C          -5.2810    3.5769   23.5049 C.ar    1  UNL1        0.0467
     32 C           3.6660    2.2501   37.0861 C.3     1  UNL1        0.0492
     33 O           1.7804    0.9398   38.3017 O.co2   1  UNL1       -0.5492
     34 C           3.1282    1.5976   38.3252 C.2     1  UNL1        0.0508
     35 O           3.9384    1.6031   39.5876 O.co2   1  UNL1       -0.5492
     36 C           4.7218    0.6873   36.6841 C.3     1  UNL1        0.1109
     37 C           6.1973    0.7307   36.4176 C.3     1  UNL1        0.3982
     38 F           7.6729    0.7742   36.1511 F       1  UNL1       -0.1700
     39 F           6.3301   -0.6751   36.9235 F       1  UNL1       -0.1700
     40 F           6.0645    2.1366   35.9117 F       1  UNL1       -0.1700
@<TRIPOS>UNITY_ATOM_ATTR
33 1
charge -1
@<TRIPOS>BOND
     1    33    34   ar
     2    34    35   ar
     3    34    32    1
     4     1    32    1
     5     1    36    1
     6    36    37    1
     7    37    38    1
     8    37    39    1
     9    37    40    1
    10     1     2    1
    11     2     3    1
    12     3     4    1
    13     4     5   ar
    14     5     6   ar
    15     6    12    1
    16    12    13   ar
    17    13    14   ar
    18    14    15   ar
    19    15    18    1
    20    18    19   am
    21    19    20    2
    22    19    21   am
    23    21    24    1
    24    24    25   ar
    25    25    26   ar
    26    26    27   ar
    27    27    28    1
    28    27    29   ar
    29    29    30    1
    30    29    31   ar
    31    15    16   ar
    32    16    17   ar
    33     6     7   ar
    34     7     8   ar
    35     8     9   ar
    36     9    10    1
    37    10    11    2
    38    10     1    1
    39     9     4   ar
    40    17    12   ar
    41    31    24   ar
    42    18    22    1
    43    21    23    1
@<TRIPOS>MOLECULE
*****
 40 43 0 0 0
SMALL
GASTEIGER

@<TRIPOS>ATOM
      1 C           3.2337   -0.6668   21.4129 C.3     1  UNL1        0.0692
      2 C           4.2361   -1.2255   22.3788 C.3     1  UNL1        0.0126
      3 C           4.0894   -0.9622   23.8482 C.3     1  UNL1        0.0269
      4 C           2.9401   -0.1401   24.3518 C.ar    1  UNL1       -0.0194
      5 C           2.7933    0.1232   25.8211 C.ar    1  UNL1       -0.0026
      6 C           1.6441    0.9452   26.3246 C.ar    1  UNL1        0.0189
      7 C           0.6416    1.5039   25.3587 C.ar    1  UNL1        0.0016
      8 C           0.7884    1.2406   23.8894 C.ar    1  UNL1        0.0026
      9 C           1.9376    0.4186   23.3859 C.ar    1  UNL1        0.0307
     10 C           2.0844    0.1552   21.9164 C.2     1  UNL1        0.1726
     11 O           1.0820    0.7139   20.9506 O.2     1  UNL1       -0.2914
     12 C           1.4973    1.2085   27.7940 C.ar    1  UNL1        0.1005
     13 C           0.8011    0.2089   28.6692 C.ar    1  UNL1        0.1194
     14 N           0.6543    0.4722   30.1386 N.ar    1  UNL1       -0.2258
     15 C           1.2037    1.7352   30.7328 C.ar    1  UNL1        0.1547
     16 C           1.8999    2.7349   29.8576 C.ar    1  UNL1        0.1332
     17 N           2.0467    2.4715   28.3882 N.ar    1  UNL1       -0.2393
     18 N           1.0568    1.9985   32.2022 N.am    1  UNL1       -0.2521
     19 C           2.2505    1.8983   33.1051 C.2     1  UNL1        0.3093
     20 O           3.5910    1.5348   32.5386 O.2     1  UNL1       -0.2521
     21 N           2.1037    2.1616   34.5744 N.am    1  UNL1       -0.2680
     22 H           0.1770    2.2371   32.5740 H       1  UNL1        0.1579
     23 H           1.2239    2.4002   34.9463 H       1  UNL1        0.1564
     24 C           3.2973    2.0614   35.4773 C.ar    1  UNL1        0.0540
     25 C           3.7825    3.2731   36.2164 C.ar    1  UNL1        0.0172
     26 C           4.9761    3.1729   37.1192 C.ar    1  UNL1        0.0332
     27 C           5.6846    1.8610   37.2830 C.ar    1  UNL1        0.1675
     28 F           6.8782    1.7608   38.1859 F       1  UNL1       -0.2018
     29 C           5.1994    0.6492   36.5439 C.ar    1  UNL1        0.1686
     30 F           5.9079   -0.6627   36.7077 F       1  UNL1       -0.2018
     31 C           4.0058    0.7494   35.6411 C.ar    1  UNL1        0.0467
     32 C           2.5476   -0.3561   20.1158 C.3     1  UNL1        0.0492
     33 O           3.2837   -0.1410   17.6335 O.co2   1  UNL1       -0.5492
     34 C           3.2814    0.3856   19.0380 C.2     1  UNL1        0.0508
     35 O           4.0128    1.6538   19.3649 O.co2   1  UNL1       -0.5492
     36 C           4.1446   -1.3809   20.4589 C.3     1  UNL1        0.1109
     37 C           4.1953   -2.8800   20.4501 C.3     1  UNL1        0.3982
     38 F           4.2461   -4.3792   20.4413 F       1  UNL1       -0.1700
     39 F           2.7874   -2.9246   19.9346 F       1  UNL1       -0.1700
     40 F           5.6033   -2.8353   20.9657 F       1  UNL1       -0.1700
@<TRIPOS>UNITY_ATOM_ATTR
33 1
charge -1
@<TRIPOS>BOND
     1    33    34   ar
     2    34    35   ar
     3    34    32    1
     4     1    32    1
     5     1    36    1
     6    36    37    1
     7    37    38    1
     8    37    39    1
     9    37    40    1
    10     1     2    1
    11     2     3    1
    12     3     4    1
    13     4     5   ar
    14     5     6   ar
    15     6    12    1
    16    12    13   ar
    17    13    14   ar
    18    14    15   ar
    19    15    18    1
    20    18    19   am
    21    19    20    2
    22    19    21   am
    23    21    24    1
    24    24    25   ar
    25    25    26   ar
    26    26    27   ar
    27    27    28    1
    28    27    29   ar
    29    29    30    1
    30    29    31   ar
    31    15    16   ar
    32    16    17   ar
    33     6     7   ar
    34     7     8   ar
    35     8     9   ar
    36     9    10    1
    37    10    11    2
    38    10     1    1
    39     9     4   ar
    40    17    12   ar
    41    31    24   ar
    42    18    22    1
    43    21    23    1
