@<TRIPOS>MOLECULE
*****
 35 38 0 0 0
SMALL
GASTEIGER

@<TRIPOS>ATOM
      1 C          -4.6885  -18.1240   21.7607 C.ar    1  UNL1        0.1679
      2 C          -5.8915  -18.7858   21.1568 C.ar    1  UNL1        0.0733
      3 C          -7.2421  -18.6019   21.7831 C.ar    1  UNL1        0.1391
      4 N          -7.3895  -17.7563   23.0132 N.ar    1  UNL1       -0.2088
      5 C          -6.1865  -17.0946   23.6171 C.ar    1  UNL1        0.2001
      6 N          -4.8360  -17.2785   22.9908 N.ar    1  UNL1       -0.2047
      7 C           0.2974  -17.2845   20.2382 C.3     1  UNL1        0.0540
      8 C          -1.0462  -17.9220   20.4347 C.ar    1  UNL1        0.0805
      9 C          -1.4730  -19.2597   19.9069 C.ar    1  UNL1        0.0312
     10 C          -2.8893  -19.4982   20.3394 C.ar    1  UNL1        0.0637
     11 C          -3.7126  -20.7135   20.0310 C.3     1  UNL1        0.0522
     12 N          -3.3379  -18.3079   21.1345 N.ar    1  UNL1       -0.2164
     13 N          -2.1987  -17.3338   21.1933 N.ar    1  UNL1       -0.1684
     14 C          -6.3340  -16.2490   24.8472 C.ar    1  UNL1        0.1805
     15 C          -5.2578  -15.4170   25.4795 C.ar    1  UNL1        0.0434
     16 C          -5.8422  -14.7408   26.6841 C.ar    1  UNL1        0.0362
     17 C          -7.2796  -15.1547   26.7964 C.ar    1  UNL1        0.1234
     18 C          -8.2438  -14.7140   27.8575 C.3     1  UNL1        0.0725
     19 O          -7.5835  -16.0869   25.6611 O.2     1  UNL1       -0.4546
     20 N          -8.4452  -19.2637   21.1792 N.am    1  UNL1       -0.2662
     21 C          -8.5341  -19.4457   19.6929 C.2     1  UNL1        0.2717
     22 O          -7.4199  -18.9660   18.8106 O.2     1  UNL1       -0.2707
     23 H          -9.1765  -19.5785   21.7583 H       1  UNL1        0.1564
     24 C          -9.7372  -20.1074   19.0890 C.3     1  UNL1        0.2897
     25 O         -11.0636  -19.4071   19.1012 O.3     1  UNL1       -0.4656
     26 C         -11.4379  -18.5298   20.2589 C.ar    1  UNL1        0.1390
     27 C         -11.8174  -17.0979   20.0229 C.ar    1  UNL1        0.0369
     28 C         -12.1917  -16.2206   21.1805 C.ar    1  UNL1        0.0028
     29 C         -12.1866  -16.7751   22.5742 C.ar    1  UNL1       -0.0027
     30 C         -11.8071  -18.2070   22.8102 C.ar    1  UNL1       -0.0031
     31 C         -11.4328  -19.0843   21.6526 C.ar    1  UNL1        0.0340
     32 C         -11.8020  -18.7616   24.2040 C.3     1  UNL1        0.0993
     33 N         -10.5095  -19.1801   24.8399 N.3     1  UNL1       -0.2665
     34 C          -9.7640  -18.2240   25.7229 C.3     1  UNL1        0.0899
     35 C          -9.9627  -20.5548   24.5927 C.3     1  UNL1        0.0899
@<TRIPOS>BOND
     1     7     8    1
     2     8     9   ar
     3     9    10   ar
     4    10    11    1
     5    10    12   ar
     6    12     1    1
     7     1     2   ar
     8     2     3   ar
     9     3    20    1
    10    20    21   am
    11    21    22    2
    12    21    24    1
    13    24    25    1
    14    25    26    1
    15    26    27   ar
    16    27    28   ar
    17    28    29   ar
    18    29    30   ar
    19    30    32    1
    20    32    33    1
    21    33    34    1
    22    33    35    1
    23    30    31   ar
    24     3     4   ar
    25     4     5   ar
    26     5    14    1
    27    14    15   ar
    28    15    16   ar
    29    16    17   ar
    30    17    18    1
    31    17    19   ar
    32     5     6   ar
    33    12    13   ar
    34    13     8   ar
    35     6     1   ar
    36    31    26   ar
    37    19    14   ar
    38    20    23    1
@<TRIPOS>MOLECULE
*****
 35 38 0 0 0
SMALL
GASTEIGER

@<TRIPOS>ATOM
      1 C          -6.6023  -16.8981   23.7635 C.ar    1  UNL1        0.1679
      2 C          -7.7698  -17.2374   22.8850 C.ar    1  UNL1        0.0733
      3 C          -7.5455  -17.9328   21.5751 C.ar    1  UNL1        0.1391
      4 N          -6.1538  -18.2889   21.1436 N.ar    1  UNL1       -0.2088
      5 C          -4.9863  -17.9496   22.0221 C.ar    1  UNL1        0.2001
      6 N          -5.2106  -17.2542   23.3321 N.ar    1  UNL1       -0.2047
      7 C          -8.9614  -14.5704   27.8743 C.3     1  UNL1        0.0540
      8 C          -7.9109  -15.1327   26.9631 C.ar    1  UNL1        0.0805
      9 C          -6.4323  -15.1323   27.2159 C.ar    1  UNL1        0.0312
     10 C          -5.7622  -15.7935   26.0482 C.ar    1  UNL1        0.0637
     11 C          -4.2868  -16.0080   25.8838 C.3     1  UNL1        0.0522
     12 N          -6.8266  -16.2026   25.0736 N.ar    1  UNL1       -0.2164
     13 N          -8.1545  -15.7942   25.6391 N.ar    1  UNL1       -0.1684
     14 C          -3.5945  -18.3057   21.5906 C.ar    1  UNL1        0.1805
     15 C          -2.9215  -19.6313   21.7903 C.ar    1  UNL1        0.0434
     16 C          -1.5425  -19.5436   21.2068 C.ar    1  UNL1        0.0362
     17 C          -1.3631  -18.1638   20.6465 C.ar    1  UNL1        0.1234
     18 C          -0.1317  -17.6408   19.9681 C.3     1  UNL1        0.0725
     19 O          -2.6313  -17.3988   20.8838 O.2     1  UNL1       -0.4546
     20 N          -8.7131  -18.2721   20.6965 N.am    1  UNL1       -0.2662
     21 C          -8.6795  -19.5095   19.8493 C.2     1  UNL1        0.2717
     22 O          -7.4784  -20.4075   19.8807 O.2     1  UNL1       -0.2707
     23 H          -9.5013  -17.6827   20.6759 H       1  UNL1        0.1564
     24 C          -9.8469  -19.8488   18.9707 C.3     1  UNL1        0.2897
     25 O         -11.1001  -19.0272   19.0381 O.3     1  UNL1       -0.4656
     26 C         -11.4817  -18.3449   20.3184 C.ar    1  UNL1        0.1390
     27 C         -11.9306  -16.9138   20.3006 C.ar    1  UNL1        0.0369
     28 C         -12.3122  -16.2316   21.5808 C.ar    1  UNL1        0.0028
     29 C         -12.2449  -16.9804   22.8787 C.ar    1  UNL1       -0.0027
     30 C         -11.7959  -18.4115   22.8964 C.ar    1  UNL1       -0.0031
     31 C         -11.4143  -19.0938   21.6163 C.ar    1  UNL1        0.0340
     32 C         -11.7286  -19.1604   24.1944 C.3     1  UNL1        0.0993
     33 N         -10.3974  -19.4861   24.8042 N.3     1  UNL1       -0.2665
     34 C          -9.7418  -18.5123   25.7379 C.3     1  UNL1        0.0899
     35 C          -9.7218  -20.7855   24.4803 C.3     1  UNL1        0.0899
@<TRIPOS>BOND
     1     7     8    1
     2     8     9   ar
     3     9    10   ar
     4    10    11    1
     5    10    12   ar
     6    12     1    1
     7     1     2   ar
     8     2     3   ar
     9     3    20    1
    10    20    21   am
    11    21    22    2
    12    21    24    1
    13    24    25    1
    14    25    26    1
    15    26    27   ar
    16    27    28   ar
    17    28    29   ar
    18    29    30   ar
    19    30    32    1
    20    32    33    1
    21    33    34    1
    22    33    35    1
    23    30    31   ar
    24     3     4   ar
    25     4     5   ar
    26     5    14    1
    27    14    15   ar
    28    15    16   ar
    29    16    17   ar
    30    17    18    1
    31    17    19   ar
    32     5     6   ar
    33    12    13   ar
    34    13     8   ar
    35     6     1   ar
    36    31    26   ar
    37    19    14   ar
    38    20    23    1
@<TRIPOS>MOLECULE
*****
 35 38 0 0 0
SMALL
GASTEIGER

@<TRIPOS>ATOM
      1 C           2.9467   -0.9793   20.9304 C.ar    1  UNL1        0.1679
      2 C           3.1499   -1.0732   22.4136 C.ar    1  UNL1        0.0733
      3 C           2.4100   -0.1465   23.3321 C.ar    1  UNL1        0.1391
      4 N           1.4669    0.8742   22.7674 N.ar    1  UNL1       -0.2088
      5 C           1.2637    0.9681   21.2842 C.ar    1  UNL1        0.2001
      6 N           2.0036    0.0414   20.3657 N.ar    1  UNL1       -0.2047
      7 C           4.7120   -5.3623   18.5737 C.3     1  UNL1        0.0540
      8 C           4.4980   -3.9207   18.9286 C.ar    1  UNL1        0.0805
      9 C           5.1524   -2.7435   18.2681 C.ar    1  UNL1        0.0312
     10 C           4.6509   -1.4985   18.9376 C.ar    1  UNL1        0.0637
     11 C           5.0446   -0.0926   18.5933 C.3     1  UNL1        0.0522
     12 N           3.6866   -1.9060   20.0119 N.ar    1  UNL1       -0.2164
     13 N           3.5922   -3.4030   20.0063 N.ar    1  UNL1       -0.1684
     14 C           0.3207    1.9888   20.7195 C.ar    1  UNL1        0.1805
     15 C           0.6907    3.1243   19.8119 C.ar    1  UNL1        0.0434
     16 C          -0.5593    3.8904   19.4948 C.ar    1  UNL1        0.0362
     17 C          -1.7019    3.2284   20.2063 C.ar    1  UNL1        0.1234
     18 C          -3.1364    3.6650   20.1678 C.3     1  UNL1        0.0725
     19 O          -1.1580    2.0532   20.9633 O.2     1  UNL1       -0.4546
     20 N           2.6131   -0.2403   24.8154 N.am    1  UNL1       -0.2662
     21 C           3.7272    0.5219   25.4695 C.2     1  UNL1        0.2717
     22 O           4.6381    1.3780   24.6403 O.2     1  UNL1       -0.2707
     23 H           2.0153   -0.8022   25.3595 H       1  UNL1        0.1564
     24 C           3.9304    0.4280   26.9527 C.3     1  UNL1        0.2897
     25 O           3.1428    1.3107   27.8749 O.3     1  UNL1       -0.4656
     26 C           1.6611    1.1203   28.0117 C.ar    1  UNL1        0.1390
     27 C           1.1234   -0.0316   28.8079 C.ar    1  UNL1        0.0369
     28 C          -0.3582   -0.2220   28.9447 C.ar    1  UNL1        0.0028
     29 C          -1.3019    0.7394   28.2852 C.ar    1  UNL1       -0.0027
     30 C          -0.7641    1.8912   27.4889 C.ar    1  UNL1       -0.0031
     31 C           0.7174    2.0817   27.3522 C.ar    1  UNL1        0.0340
     32 C          -1.7080    2.8527   26.8294 C.3     1  UNL1        0.0993
     33 N          -1.2118    3.7710   25.7522 N.3     1  UNL1       -0.2665
     34 C          -0.8805    5.1975   26.0767 C.3     1  UNL1        0.0899
     35 C          -1.0469    3.2629   24.3506 C.3     1  UNL1        0.0899
@<TRIPOS>BOND
     1     7     8    1
     2     8     9   ar
     3     9    10   ar
     4    10    11    1
     5    10    12   ar
     6    12     1    1
     7     1     2   ar
     8     2     3   ar
     9     3    20    1
    10    20    21   am
    11    21    22    2
    12    21    24    1
    13    24    25    1
    14    25    26    1
    15    26    27   ar
    16    27    28   ar
    17    28    29   ar
    18    29    30   ar
    19    30    32    1
    20    32    33    1
    21    33    34    1
    22    33    35    1
    23    30    31   ar
    24     3     4   ar
    25     4     5   ar
    26     5    14    1
    27    14    15   ar
    28    15    16   ar
    29    16    17   ar
    30    17    18    1
    31    17    19   ar
    32     5     6   ar
    33    12    13   ar
    34    13     8   ar
    35     6     1   ar
    36    31    26   ar
    37    19    14   ar
    38    20    23    1
@<TRIPOS>MOLECULE
*****
 35 38 0 0 0
SMALL
GASTEIGER

@<TRIPOS>ATOM
      1 C           0.5435    1.6591   26.2997 C.ar    1  UNL1        0.1679
      2 C           1.2750    1.7912   24.9968 C.ar    1  UNL1        0.0733
      3 C           0.6190    2.4760   23.8346 C.ar    1  UNL1        0.1391
      4 N          -0.7684    3.0286   23.9752 N.ar    1  UNL1       -0.2088
      5 C          -1.4998    2.8965   25.2781 C.ar    1  UNL1        0.2001
      6 N          -0.8439    2.2117   26.4403 N.ar    1  UNL1       -0.2047
      7 C           4.1891   -0.0577   29.7119 C.3     1  UNL1        0.0540
      8 C           2.8751    0.1852   29.0304 C.ar    1  UNL1        0.0805
      9 C           1.5424   -0.3441   29.4707 C.ar    1  UNL1        0.0312
     10 C           0.5068    0.1437   28.5013 C.ar    1  UNL1        0.0637
     11 C          -0.9633   -0.1481   28.5609 C.3     1  UNL1        0.0522
     12 N           1.1995    0.9743   27.4620 N.ar    1  UNL1       -0.2164
     13 N           2.6632    1.0000   27.7890 N.ar    1  UNL1       -0.1684
     14 C          -2.8872    3.4491   25.4187 C.ar    1  UNL1        0.1805
     15 C          -3.4960    3.9936   26.6768 C.ar    1  UNL1        0.0434
     16 C          -4.8945    4.4353   26.3616 C.ar    1  UNL1        0.0362
     17 C          -5.1499    4.1636   24.9087 C.ar    1  UNL1        0.1234
     18 C          -6.4225    4.4510   24.1684 C.3     1  UNL1        0.0725
     19 O          -3.9094    3.5541   24.3260 O.2     1  UNL1       -0.4546
     20 N           1.3505    2.6082   22.5316 N.am    1  UNL1       -0.2662
     21 C           1.0531    1.6631   21.4054 C.2     1  UNL1        0.2717
     22 O           0.0242    0.5859   21.5821 O.2     1  UNL1       -0.2707
     23 H           2.0257    3.3152   22.4157 H       1  UNL1        0.1564
     24 C           1.7844    1.7952   20.1025 C.3     1  UNL1        0.2897
     25 O           1.5930    0.7669   19.0273 O.3     1  UNL1       -0.4656
     26 C           2.6687   -0.2425   18.7549 C.ar    1  UNL1        0.1390
     27 C           3.5698   -0.0762   17.5673 C.ar    1  UNL1        0.0369
     28 C           4.6454   -1.0855   17.2949 C.ar    1  UNL1        0.0028
     29 C           4.8199   -2.2612   18.2100 C.ar    1  UNL1       -0.0027
     30 C           3.9187   -2.4274   19.3975 C.ar    1  UNL1       -0.0031
     31 C           2.8431   -1.4181   19.6700 C.ar    1  UNL1        0.0340
     32 C           4.0932   -3.6031   20.3127 C.3     1  UNL1        0.0993
     33 N           5.1204   -3.5575   21.4047 N.3     1  UNL1       -0.2665
     34 C           6.5700   -3.7652   21.0799 C.3     1  UNL1        0.0899
     35 C           4.6981   -3.3043   22.8216 C.3     1  UNL1        0.0899
@<TRIPOS>BOND
     1     7     8    1
     2     8     9   ar
     3     9    10   ar
     4    10    11    1
     5    10    12   ar
     6    12     1    1
     7     1     2   ar
     8     2     3   ar
     9     3    20    1
    10    20    21   am
    11    21    22    2
    12    21    24    1
    13    24    25    1
    14    25    26    1
    15    26    27   ar
    16    27    28   ar
    17    28    29   ar
    18    29    30   ar
    19    30    32    1
    20    32    33    1
    21    33    34    1
    22    33    35    1
    23    30    31   ar
    24     3     4   ar
    25     4     5   ar
    26     5    14    1
    27    14    15   ar
    28    15    16   ar
    29    16    17   ar
    30    17    18    1
    31    17    19   ar
    32     5     6   ar
    33    12    13   ar
    34    13     8   ar
    35     6     1   ar
    36    31    26   ar
    37    19    14   ar
    38    20    23    1
@<TRIPOS>MOLECULE
*****
 35 38 0 0 0
SMALL
GASTEIGER

@<TRIPOS>ATOM
      1 C           6.3208   -3.9021   24.6785 C.ar    1  UNL1        0.1679
      2 C           6.3101   -2.9033   25.7975 C.ar    1  UNL1        0.0733
      3 C           5.5169   -1.6372   25.6651 C.ar    1  UNL1        0.1391
      4 N           4.7342   -1.3699   24.4137 N.ar    1  UNL1       -0.2088
      5 C           4.7449   -2.3687   23.2947 C.ar    1  UNL1        0.2001
      6 N           5.5381   -3.6348   23.4271 N.ar    1  UNL1       -0.2047
      7 C           8.3180   -8.4001   26.5919 C.3     1  UNL1        0.0540
      8 C           8.0321   -7.2358   25.6903 C.ar    1  UNL1        0.0805
      9 C           8.6375   -6.9978   24.3387 C.ar    1  UNL1        0.0312
     10 C           8.0701   -5.7201   23.7952 C.ar    1  UNL1        0.0637
     11 C           8.4007   -5.1024   22.4688 C.3     1  UNL1        0.0522
     12 N           7.1140   -5.1684   24.8109 N.ar    1  UNL1       -0.2164
     13 N           7.0905   -6.1051   25.9821 N.ar    1  UNL1       -0.1684
     14 C           3.9622   -2.1014   22.0432 C.ar    1  UNL1        0.1805
     15 C           4.1845   -2.7496   20.7089 C.ar    1  UNL1        0.0434
     16 C           3.1796   -2.1877   19.7474 C.ar    1  UNL1        0.0362
     17 C           2.3362   -1.1922   20.4875 C.ar    1  UNL1        0.1234
     18 C           1.2073   -0.3908   19.9102 C.3     1  UNL1        0.0725
     19 O           2.8199   -1.1389   21.9064 O.2     1  UNL1       -0.4546
     20 N           5.5062   -0.6383   26.7841 N.am    1  UNL1       -0.2662
     21 C           4.3781   -0.6316   27.7727 C.2     1  UNL1        0.2717
     22 O           3.2606   -1.6237   27.6422 O.2     1  UNL1       -0.2707
     23 H           6.2396    0.0129   26.8697 H       1  UNL1        0.1564
     24 C           4.3674    0.3673   28.8917 C.3     1  UNL1        0.2897
     25 O           3.4329    1.5395   28.8417 O.3     1  UNL1       -0.4656
     26 C           1.9818    1.3290   28.5251 C.ar    1  UNL1        0.1390
     27 C           1.0896    0.6431   29.5169 C.ar    1  UNL1        0.0369
     28 C          -0.3613    0.4325   29.2004 C.ar    1  UNL1        0.0028
     29 C          -0.9202    0.9078   27.8920 C.ar    1  UNL1       -0.0027
     30 C          -0.0280    1.5936   26.9002 C.ar    1  UNL1       -0.0031
     31 C           1.4230    1.8042   27.2168 C.ar    1  UNL1        0.0340
     32 C          -0.5869    2.0689   25.5918 C.3     1  UNL1        0.0993
     33 N          -1.3493    3.3590   25.5263 N.3     1  UNL1       -0.2665
     34 C          -0.7760    4.6010   26.1415 C.3     1  UNL1        0.0899
     35 C          -2.6851    3.4070   24.8455 C.3     1  UNL1        0.0899
@<TRIPOS>BOND
     1     7     8    1
     2     8     9   ar
     3     9    10   ar
     4    10    11    1
     5    10    12   ar
     6    12     1    1
     7     1     2   ar
     8     2     3   ar
     9     3    20    1
    10    20    21   am
    11    21    22    2
    12    21    24    1
    13    24    25    1
    14    25    26    1
    15    26    27   ar
    16    27    28   ar
    17    28    29   ar
    18    29    30   ar
    19    30    32    1
    20    32    33    1
    21    33    34    1
    22    33    35    1
    23    30    31   ar
    24     3     4   ar
    25     4     5   ar
    26     5    14    1
    27    14    15   ar
    28    15    16   ar
    29    16    17   ar
    30    17    18    1
    31    17    19   ar
    32     5     6   ar
    33    12    13   ar
    34    13     8   ar
    35     6     1   ar
    36    31    26   ar
    37    19    14   ar
    38    20    23    1
@<TRIPOS>MOLECULE
*****
 35 38 0 0 0
SMALL
GASTEIGER

@<TRIPOS>ATOM
      1 C           2.2202   -0.3440   20.7492 C.ar    1  UNL1        0.1679
      2 C           0.9968    0.3353   20.2091 C.ar    1  UNL1        0.0733
      3 C           0.1629    1.2021   21.1054 C.ar    1  UNL1        0.1391
      4 N           0.5524    1.3895   22.5418 N.ar    1  UNL1       -0.2088
      5 C           1.7759    0.7102   23.0818 C.ar    1  UNL1        0.2001
      6 N           2.6097   -0.1565   22.1856 N.ar    1  UNL1       -0.2047
      7 C           4.6289   -4.5491   18.6526 C.3     1  UNL1        0.0540
      8 C           4.1613   -3.1437   18.8892 C.ar    1  UNL1        0.0805
      9 C           4.5135   -1.9455   18.0582 C.ar    1  UNL1        0.0312
     10 C           3.8292   -0.7510   18.6538 C.ar    1  UNL1        0.0637
     11 C           3.9065    0.6563   18.1405 C.3     1  UNL1        0.0522
     12 N           3.0541   -1.2108   19.8529 N.ar    1  UNL1       -0.2164
     13 N           3.2593   -2.6896   19.9984 N.ar    1  UNL1       -0.1684
     14 C           2.1654    0.8977   24.5182 C.ar    1  UNL1        0.1805
     15 C           3.5164    0.6217   25.1086 C.ar    1  UNL1        0.0434
     16 C           3.4584    0.9475   26.5716 C.ar    1  UNL1        0.0362
     17 C           2.0714    1.4248   26.8855 C.ar    1  UNL1        0.1234
     18 C           1.5713    1.8571   28.2320 C.3     1  UNL1        0.0725
     19 O           1.2724    1.3940   25.6164 O.2     1  UNL1       -0.4546
     20 N          -1.0606    1.8814   20.5653 N.am    1  UNL1       -0.2662
     21 C          -1.0250    3.3462   20.2441 C.2     1  UNL1        0.2717
     22 O           0.2341    4.1316   20.4630 O.2     1  UNL1       -0.2707
     23 H          -1.8870    1.3660   20.4217 H       1  UNL1        0.1564
     24 C          -2.2484    4.0256   19.7041 C.3     1  UNL1        0.2897
     25 O          -3.5733    3.3231   19.7385 O.3     1  UNL1       -0.4656
     26 C          -4.5615    3.6386   20.8220 C.ar    1  UNL1        0.1390
     27 C          -5.8572    4.3136   20.4820 C.ar    1  UNL1        0.0369
     28 C          -6.8454    4.6291   21.5654 C.ar    1  UNL1        0.0028
     29 C          -6.5380    4.2695   22.9888 C.ar    1  UNL1       -0.0027
     30 C          -5.2424    3.5945   23.3288 C.ar    1  UNL1       -0.0031
     31 C          -4.2541    3.2790   22.2454 C.ar    1  UNL1        0.0340
     32 C          -4.9350    3.2349   24.7523 C.3     1  UNL1        0.0993
     33 N          -4.1867    4.1988   25.6245 N.3     1  UNL1       -0.2665
     34 C          -4.9278    5.0382   26.6225 C.3     1  UNL1        0.0899
     35 C          -2.6972    4.3233   25.4988 C.3     1  UNL1        0.0899
@<TRIPOS>BOND
     1     7     8    1
     2     8     9   ar
     3     9    10   ar
     4    10    11    1
     5    10    12   ar
     6    12     1    1
     7     1     2   ar
     8     2     3   ar
     9     3    20    1
    10    20    21   am
    11    21    22    2
    12    21    24    1
    13    24    25    1
    14    25    26    1
    15    26    27   ar
    16    27    28   ar
    17    28    29   ar
    18    29    30   ar
    19    30    32    1
    20    32    33    1
    21    33    34    1
    22    33    35    1
    23    30    31   ar
    24     3     4   ar
    25     4     5   ar
    26     5    14    1
    27    14    15   ar
    28    15    16   ar
    29    16    17   ar
    30    17    18    1
    31    17    19   ar
    32     5     6   ar
    33    12    13   ar
    34    13     8   ar
    35     6     1   ar
    36    31    26   ar
    37    19    14   ar
    38    20    23    1
@<TRIPOS>MOLECULE
*****
 35 38 0 0 0
SMALL
GASTEIGER

@<TRIPOS>ATOM
      1 C           1.3822    1.4440   29.8524 C.ar    1  UNL1        0.1679
      2 C           1.0183    2.0660   31.1679 C.ar    1  UNL1        0.0733
      3 C           1.7866    1.7072   32.4052 C.ar    1  UNL1        0.1391
      4 N           2.9188    0.7264   32.3270 N.ar    1  UNL1       -0.2088
      5 C           3.2827    0.1044   31.0115 C.ar    1  UNL1        0.2001
      6 N           2.5144    0.4632   29.7742 N.ar    1  UNL1       -0.2047
      7 C          -0.1555    3.8742   25.4240 C.3     1  UNL1        0.0540
      8 C          -0.0929    2.9199   26.5795 C.ar    1  UNL1        0.0805
      9 C          -1.0439    1.7900   26.8424 C.ar    1  UNL1        0.0312
     10 C          -0.6070    1.0996   28.1004 C.ar    1  UNL1        0.0637
     11 C          -1.2740   -0.0858   28.7327 C.3     1  UNL1        0.0522
     12 N           0.6139    1.8028   28.6150 N.ar    1  UNL1       -0.2164
     13 N           0.9317    2.9278   27.6751 N.ar    1  UNL1       -0.1684
     14 C           4.4149   -0.8764   30.9333 C.ar    1  UNL1        0.1805
     15 C           5.4801   -0.9111   29.8777 C.ar    1  UNL1        0.0434
     16 C           6.4042   -2.0509   30.1889 C.ar    1  UNL1        0.0362
     17 C           5.9102   -2.7207   31.4368 C.ar    1  UNL1        0.1234
     18 C           6.5358   -3.9079   32.1071 C.3     1  UNL1        0.0725
     19 O           4.6807   -1.9948   31.8968 O.2     1  UNL1       -0.4546
     20 N           1.4227    2.3292   33.7208 N.am    1  UNL1       -0.2662
     21 C           2.0323    3.6387   34.1255 C.2     1  UNL1        0.2717
     22 O           3.0058    4.3261   33.2145 O.2     1  UNL1       -0.2707
     23 H           0.7838    1.8780   34.3187 H       1  UNL1        0.1564
     24 C           1.6684    4.2607   35.4410 C.3     1  UNL1        0.2897
     25 O           1.5973    3.4137   36.6770 O.3     1  UNL1       -0.4656
     26 C           2.8566    3.0269   37.3945 C.ar    1  UNL1        0.1390
     27 C           3.2288    3.7096   38.6772 C.ar    1  UNL1        0.0369
     28 C           4.4879    3.3228   39.3947 C.ar    1  UNL1        0.0028
     29 C           5.3748    2.2532   38.8296 C.ar    1  UNL1       -0.0027
     30 C           5.0026    1.5705   37.5469 C.ar    1  UNL1       -0.0031
     31 C           3.7434    1.9573   36.8293 C.ar    1  UNL1        0.0340
     32 C           5.8895    0.5009   36.9817 C.3     1  UNL1        0.0993
     33 N           5.8574    0.1985   35.5129 N.3     1  UNL1       -0.2665
     34 C           6.6878    1.0086   34.5621 C.3     1  UNL1        0.0899
     35 C           4.9948   -0.9140   34.9949 C.3     1  UNL1        0.0899
@<TRIPOS>BOND
     1     7     8    1
     2     8     9   ar
     3     9    10   ar
     4    10    11    1
     5    10    12   ar
     6    12     1    1
     7     1     2   ar
     8     2     3   ar
     9     3    20    1
    10    20    21   am
    11    21    22    2
    12    21    24    1
    13    24    25    1
    14    25    26    1
    15    26    27   ar
    16    27    28   ar
    17    28    29   ar
    18    29    30   ar
    19    30    32    1
    20    32    33    1
    21    33    34    1
    22    33    35    1
    23    30    31   ar
    24     3     4   ar
    25     4     5   ar
    26     5    14    1
    27    14    15   ar
    28    15    16   ar
    29    16    17   ar
    30    17    18    1
    31    17    19   ar
    32     5     6   ar
    33    12    13   ar
    34    13     8   ar
    35     6     1   ar
    36    31    26   ar
    37    19    14   ar
    38    20    23    1
@<TRIPOS>MOLECULE
*****
 35 38 0 0 0
SMALL
GASTEIGER

@<TRIPOS>ATOM
      1 C           5.6023   -2.9623   23.7870 C.ar    1  UNL1        0.1679
      2 C           6.6631   -3.5607   24.6624 C.ar    1  UNL1        0.0733
      3 C           6.6971   -3.2379   26.1269 C.ar    1  UNL1        0.1391
      4 N           5.6702   -2.3166   26.7158 N.ar    1  UNL1       -0.2088
      5 C           4.6094   -1.7182   25.8404 C.ar    1  UNL1        0.2001
      6 N           4.5754   -2.0410   24.3759 N.ar    1  UNL1       -0.2047
      7 C           4.1542   -4.9529   19.1156 C.3     1  UNL1        0.0540
      8 C           4.9027   -4.2000   20.1753 C.ar    1  UNL1        0.0805
      9 C           6.1294   -3.3634   19.9624 C.ar    1  UNL1        0.0312
     10 C           6.5408   -2.7979   21.2895 C.ar    1  UNL1        0.0637
     11 C           7.7179   -1.9025   21.5396 C.3     1  UNL1        0.0522
     12 N           5.5683   -3.2850   22.3225 N.ar    1  UNL1       -0.2164
     13 N           4.5560   -4.1516   21.6339 N.ar    1  UNL1       -0.1684
     14 C           3.5825   -0.7970   26.4293 C.ar    1  UNL1        0.1805
     15 C           3.1198   -0.7894   27.8561 C.ar    1  UNL1        0.0434
     16 C           2.0893    0.2907   28.0035 C.ar    1  UNL1        0.0362
     17 C           1.9151    0.9505   26.6678 C.ar    1  UNL1        0.1234
     18 C           0.9820    2.0836   26.3591 C.3     1  UNL1        0.0725
     19 O           2.8380    0.2783   25.6949 O.2     1  UNL1       -0.4546
     20 N           7.7580   -3.8363   27.0024 N.am    1  UNL1       -0.2662
     21 C           7.3945   -4.8863   28.0101 C.2     1  UNL1        0.2717
     22 O           5.9701   -5.3378   28.1422 O.2     1  UNL1       -0.2707
     23 H           8.6928   -3.5399   26.9157 H       1  UNL1        0.1564
     24 C           8.4553   -5.4847   28.8856 C.3     1  UNL1        0.2897
     25 O           8.2406   -5.5773   30.3673 O.3     1  UNL1       -0.4656
     26 C           7.9326   -4.3412   31.1593 C.ar    1  UNL1        0.1390
     27 C           9.0134   -3.3381   31.4345 C.ar    1  UNL1        0.0369
     28 C           8.7054   -2.1020   32.2264 C.ar    1  UNL1        0.0028
     29 C           7.3166   -1.8690   32.7431 C.ar    1  UNL1       -0.0027
     30 C           6.2359   -2.8721   32.4679 C.ar    1  UNL1       -0.0031
     31 C           6.5438   -4.1082   31.6760 C.ar    1  UNL1        0.0340
     32 C           4.8470   -2.6391   32.9847 C.3     1  UNL1        0.0993
     33 N           4.2091   -1.2894   32.8386 N.3     1  UNL1       -0.2665
     34 C           4.2446   -0.3157   33.9790 C.3     1  UNL1        0.0899
     35 C           3.5357   -0.9134   31.5521 C.3     1  UNL1        0.0899
@<TRIPOS>BOND
     1     7     8    1
     2     8     9   ar
     3     9    10   ar
     4    10    11    1
     5    10    12   ar
     6    12     1    1
     7     1     2   ar
     8     2     3   ar
     9     3    20    1
    10    20    21   am
    11    21    22    2
    12    21    24    1
    13    24    25    1
    14    25    26    1
    15    26    27   ar
    16    27    28   ar
    17    28    29   ar
    18    29    30   ar
    19    30    32    1
    20    32    33    1
    21    33    34    1
    22    33    35    1
    23    30    31   ar
    24     3     4   ar
    25     4     5   ar
    26     5    14    1
    27    14    15   ar
    28    15    16   ar
    29    16    17   ar
    30    17    18    1
    31    17    19   ar
    32     5     6   ar
    33    12    13   ar
    34    13     8   ar
    35     6     1   ar
    36    31    26   ar
    37    19    14   ar
    38    20    23    1
@<TRIPOS>MOLECULE
*****
 35 38 0 0 0
SMALL
GASTEIGER

@<TRIPOS>ATOM
      1 C          -3.5947  -18.1320   21.0399 C.ar    1  UNL1        0.1679
      2 C          -3.8776  -17.5797   22.4054 C.ar    1  UNL1        0.0733
      3 C          -5.2562  -17.6867   22.9869 C.ar    1  UNL1        0.1391
      4 N          -6.3518  -18.3460   22.2027 N.ar    1  UNL1       -0.2088
      5 C          -6.0689  -18.8983   20.8371 C.ar    1  UNL1        0.2001
      6 N          -4.6903  -18.7913   20.2557 N.ar    1  UNL1       -0.2047
      7 C           1.6550  -18.3044   20.4996 C.3     1  UNL1        0.0540
      8 C           0.1969  -18.1043   20.2100 C.ar    1  UNL1        0.0805
      9 C          -0.3864  -17.6164   18.9170 C.ar    1  UNL1        0.0312
     10 C          -1.8777  -17.5674   19.0705 C.ar    1  UNL1        0.0637
     11 C          -2.8584  -17.1365   18.0205 C.3     1  UNL1        0.0522
     12 N          -2.2161  -18.0250   20.4584 N.ar    1  UNL1       -0.2164
     13 N          -0.9339  -18.3568   21.1626 N.ar    1  UNL1       -0.1684
     14 C          -7.1645  -19.5576   20.0529 C.ar    1  UNL1        0.1805
     15 C          -8.5757  -19.0658   19.9245 C.ar    1  UNL1        0.0434
     16 C          -9.3247  -20.0287   19.0517 C.ar    1  UNL1        0.0362
     17 C          -8.3763  -21.1158   18.6407 C.ar    1  UNL1        0.1234
     18 C          -8.7053  -22.2881   17.7647 C.3     1  UNL1        0.0725
     19 O          -7.0413  -20.8246   19.2595 O.2     1  UNL1       -0.4546
     20 N          -5.5392  -17.1344   24.3525 N.am    1  UNL1       -0.2662
     21 C          -5.5345  -15.6514   24.5775 C.2     1  UNL1        0.2717
     22 O          -5.2468  -14.7207   23.4368 O.2     1  UNL1       -0.2707
     23 H          -5.7280  -17.7453   25.1011 H       1  UNL1        0.1564
     24 C          -5.8174  -15.0991   25.9431 C.3     1  UNL1        0.2897
     25 O          -7.2001  -15.1904   26.5173 O.3     1  UNL1       -0.4656
     26 C          -8.2165  -16.0947   25.8853 C.ar    1  UNL1        0.1390
     27 C          -8.7703  -17.2557   26.6568 C.ar    1  UNL1        0.0369
     28 C          -9.7867  -18.1599   26.0249 C.ar    1  UNL1        0.0028
     29 C         -10.2492  -17.9030   24.6213 C.ar    1  UNL1       -0.0027
     30 C          -9.6954  -16.7420   23.8497 C.ar    1  UNL1       -0.0031
     31 C          -8.6791  -15.8378   24.4817 C.ar    1  UNL1        0.0340
     32 C         -10.1580  -16.4852   22.4461 C.3     1  UNL1        0.0993
     33 N         -11.5723  -16.7947   22.0541 N.3     1  UNL1       -0.2665
     34 C         -11.8626  -17.9529   21.1462 C.3     1  UNL1        0.0899
     35 C         -12.6964  -15.9460   22.5699 C.3     1  UNL1        0.0899
@<TRIPOS>BOND
     1     7     8    1
     2     8     9   ar
     3     9    10   ar
     4    10    11    1
     5    10    12   ar
     6    12     1    1
     7     1     2   ar
     8     2     3   ar
     9     3    20    1
    10    20    21   am
    11    21    22    2
    12    21    24    1
    13    24    25    1
    14    25    26    1
    15    26    27   ar
    16    27    28   ar
    17    28    29   ar
    18    29    30   ar
    19    30    32    1
    20    32    33    1
    21    33    34    1
    22    33    35    1
    23    30    31   ar
    24     3     4   ar
    25     4     5   ar
    26     5    14    1
    27    14    15   ar
    28    15    16   ar
    29    16    17   ar
    30    17    18    1
    31    17    19   ar
    32     5     6   ar
    33    12    13   ar
    34    13     8   ar
    35     6     1   ar
    36    31    26   ar
    37    19    14   ar
    38    20    23    1
