@<TRIPOS>MOLECULE
*****
 29 32 0 0 0
SMALL
GASTEIGER

@<TRIPOS>ATOM
      1 C          -7.2697  -17.8016   22.0720 C.2     1  UNL1        0.3279
      2 N          -5.9437  -18.1962   21.4923 N.2     1  UNL1       -0.0020
      3 C          -4.6743  -17.8050   22.1890 C.2     1  UNL1        0.3340
      4 C          -4.7308  -17.0192   23.4655 C.2     1  UNL1        0.0879
      5 C          -6.0567  -16.6247   24.0452 C.2     1  UNL1        0.0161
      6 C          -6.4236  -15.8558   25.2798 C.2     1  UNL1       -0.0100
      7 C          -5.4629  -15.2731   26.2736 C.3     1  UNL1        0.0320
      8 C          -7.9198  -15.7717   25.3461 C.2     1  UNL1        0.0509
      9 C          -8.7179  -15.0902   26.4178 C.3     1  UNL1        0.0513
     10 N          -8.4776  -16.4887   24.1525 N.2     1  UNL1       -0.2602
     11 C          -7.3262  -17.0159   23.3485 C.3     1  UNL1        0.2298
     12 N          -3.3483  -18.1995   21.6092 N.am    1  UNL1       -0.1358
     13 C          -3.0494  -19.6436   21.3351 C.3     1  UNL1        0.2422
     14 C          -1.7234  -20.0382   20.7554 C.3     1  UNL1        0.1940
     15 O          -0.6963  -18.9886   20.4497 O.3     1  UNL1       -0.3382
     16 C          -0.9952  -17.5444   20.7237 C.3     1  UNL1        0.2554
     17 C          -2.3212  -17.1499   21.3035 C.2     1  UNL1        0.3436
     18 O          -2.6201  -15.7058   21.5776 O.2     1  UNL1       -0.2440
     19 N          -8.5392  -18.1928   21.3753 N.pl3   1  UNL1       -0.2166
     20 H          -8.7739  -17.7816   20.5121 H       1  UNL1        0.2923
     21 C          -9.4512  -19.2106   21.9938 C.3     1  UNL1        0.2258
     22 C         -10.1129  -19.6776   24.8824 C.3     1  UNL1        0.0308
     23 C         -11.1167  -19.0247   23.9791 C.ar    1  UNL1       -0.0223
     24 C         -12.4515  -18.6053   24.5200 C.ar    1  UNL1       -0.0045
     25 C         -13.4553  -17.9525   23.6167 C.ar    1  UNL1       -0.0007
     26 C         -13.1245  -17.7190   22.1724 C.ar    1  UNL1       -0.0045
     27 C         -11.7898  -18.1383   21.6315 C.ar    1  UNL1       -0.0223
     28 C         -11.4589  -17.9048   20.1872 C.3     1  UNL1        0.0308
     29 C         -10.7859  -18.7912   22.5348 C.ar    1  UNL1        0.0162
@<TRIPOS>BOND
     1    22    23    1
     2    23    24   ar
     3    24    25   ar
     4    25    26   ar
     5    26    27   ar
     6    27    28    1
     7    27    29   ar
     8    29    21    1
     9    21    19    1
    10    19     1    1
    11     1     2    2
    12     2     3    1
    13     3    12    1
    14    12    13    1
    15    13    14    1
    16    14    15    1
    17    15    16    1
    18    16    17    1
    19    17    18    2
    20     3     4    2
    21     4     5    1
    22     5     6    2
    23     6     7    1
    24     6     8    1
    25     8     9    1
    26     8    10    2
    27    10    11    1
    28    29    23   ar
    29    11     1    1
    30    17    12   am
    31    11     5    1
    32    19    20    1
@<TRIPOS>MOLECULE
*****
 29 32 0 0 0
SMALL
GASTEIGER

@<TRIPOS>ATOM
      1 C          -7.2684  -17.8004   22.0690 C.2     1  UNL1        0.3279
      2 N          -5.9423  -18.1949   21.4897 N.2     1  UNL1       -0.0020
      3 C          -4.6731  -17.8046   22.1873 C.2     1  UNL1        0.3340
      4 C          -4.7301  -17.0197   23.4643 C.2     1  UNL1        0.0879
      5 C          -6.0562  -16.6251   24.0436 C.2     1  UNL1        0.0161
      6 C          -6.4234  -15.8569   25.2785 C.2     1  UNL1       -0.0100
      7 C          -5.4631  -15.2753   26.2732 C.3     1  UNL1        0.0320
      8 C          -7.9196  -15.7725   25.3441 C.2     1  UNL1        0.0509
      9 C          -8.7182  -15.0915   26.4159 C.3     1  UNL1        0.0513
     10 N          -8.4771  -16.4885   24.1497 N.2     1  UNL1       -0.2602
     11 C          -7.3254  -17.0155   23.3460 C.3     1  UNL1        0.2298
     12 N          -3.3469  -18.1991   21.6079 N.am    1  UNL1       -0.1358
     13 C          -3.0476  -19.6434   21.3347 C.3     1  UNL1        0.2422
     14 C          -1.7215  -20.0379   20.7554 C.3     1  UNL1        0.1940
     15 O          -0.6946  -18.9882   20.4493 O.3     1  UNL1       -0.3382
     16 C          -0.9938  -17.5440   20.7225 C.3     1  UNL1        0.2554
     17 C          -2.3200  -17.1495   21.3019 C.2     1  UNL1        0.3436
     18 O          -2.6193  -15.7052   21.5751 O.2     1  UNL1       -0.2440
     19 N          -8.5377  -18.1907   21.3714 N.pl3   1  UNL1       -0.2166
     20 H          -8.7720  -17.7785   20.5086 H       1  UNL1        0.2923
     21 C          -9.4499  -19.2092   21.9883 C.3     1  UNL1        0.2258
     22 C         -11.4602  -17.9031   20.1847 C.3     1  UNL1        0.0308
     23 C         -11.7891  -18.1370   21.6294 C.ar    1  UNL1       -0.0223
     24 C         -13.1232  -17.7179   22.1723 C.ar    1  UNL1       -0.0045
     25 C         -13.4520  -17.9518   23.6169 C.ar    1  UNL1       -0.0007
     26 C         -12.4469  -18.6049   24.5188 C.ar    1  UNL1       -0.0045
     27 C         -11.1129  -19.0240   23.9759 C.ar    1  UNL1       -0.0223
     28 C         -10.1077  -19.6770   24.8777 C.3     1  UNL1        0.0308
     29 C         -10.7839  -18.7900   22.5312 C.ar    1  UNL1        0.0162
@<TRIPOS>BOND
     1    22    23    1
     2    23    24   ar
     3    24    25   ar
     4    25    26   ar
     5    26    27   ar
     6    27    28    1
     7    27    29   ar
     8    29    21    1
     9    21    19    1
    10    19     1    1
    11     1     2    2
    12     2     3    1
    13     3    12    1
    14    12    13    1
    15    13    14    1
    16    14    15    1
    17    15    16    1
    18    16    17    1
    19    17    18    2
    20     3     4    2
    21     4     5    1
    22     5     6    2
    23     6     7    1
    24     6     8    1
    25     8     9    1
    26     8    10    2
    27    10    11    1
    28    29    23   ar
    29    11     1    1
    30    17    12   am
    31    11     5    1
    32    19    20    1
@<TRIPOS>MOLECULE
*****
 29 32 0 0 0
SMALL
GASTEIGER

@<TRIPOS>ATOM
      1 C          -7.6570  -17.9900   21.6164 C.2     1  UNL1        0.3279
      2 N          -7.7819  -17.1724   22.8677 N.2     1  UNL1       -0.0020
      3 C          -6.5919  -16.9813   23.7606 C.2     1  UNL1        0.3340
      4 C          -5.2770  -17.6079   23.4023 C.2     1  UNL1        0.0879
      5 C          -5.1521  -18.4255   22.1509 C.2     1  UNL1        0.0161
      6 C          -3.9938  -19.1594   21.5430 C.2     1  UNL1       -0.0100
      7 C          -2.6051  -19.2353   22.1051 C.3     1  UNL1        0.0320
      8 C          -4.4679  -19.8041   20.2743 C.2     1  UNL1        0.0509
      9 C          -3.6365  -20.6379   19.3449 C.3     1  UNL1        0.0513
     10 N          -5.9192  -19.4686   20.0981 N.2     1  UNL1       -0.2602
     11 C          -6.3420  -18.6166   21.2580 C.3     1  UNL1        0.2298
     12 N          -6.7168  -16.1637   25.0120 N.am    1  UNL1       -0.1358
     13 C          -5.5451  -15.3704   25.5096 C.3     1  UNL1        0.2422
     14 C          -5.6699  -14.5527   26.7610 C.3     1  UNL1        0.1940
     15 O          -6.9666  -14.5284   27.5148 O.3     1  UNL1       -0.3382
     16 C          -8.1384  -15.3217   27.0171 C.3     1  UNL1        0.2554
     17 C          -8.0135  -16.1394   25.7657 C.2     1  UNL1        0.3436
     18 O          -9.1852  -16.9327   25.2681 O.2     1  UNL1       -0.2440
     19 N          -8.8470  -18.1812   20.7234 N.pl3   1  UNL1       -0.2166
     20 H          -8.9402  -17.6415   19.9052 H       1  UNL1        0.2923
     21 C          -9.8949  -19.1945   21.0769 C.3     1  UNL1        0.2258
     22 C         -12.2304  -17.3766   20.5859 C.3     1  UNL1        0.0308
     23 C         -12.0376  -18.0023   21.9355 C.ar    1  UNL1       -0.0223
     24 C         -13.0127  -17.7190   23.0397 C.ar    1  UNL1       -0.0045
     25 C         -12.8200  -18.3446   24.3892 C.ar    1  UNL1       -0.0007
     26 C         -11.6522  -19.2535   24.6347 C.ar    1  UNL1       -0.0045
     27 C         -10.6772  -19.5368   23.5307 C.ar    1  UNL1       -0.0223
     28 C          -9.5095  -20.4458   23.7762 C.3     1  UNL1        0.0308
     29 C         -10.8699  -18.9112   22.1810 C.ar    1  UNL1        0.0162
@<TRIPOS>BOND
     1    22    23    1
     2    23    24   ar
     3    24    25   ar
     4    25    26   ar
     5    26    27   ar
     6    27    28    1
     7    27    29   ar
     8    29    21    1
     9    21    19    1
    10    19     1    1
    11     1     2    2
    12     2     3    1
    13     3    12    1
    14    12    13    1
    15    13    14    1
    16    14    15    1
    17    15    16    1
    18    16    17    1
    19    17    18    2
    20     3     4    2
    21     4     5    1
    22     5     6    2
    23     6     7    1
    24     6     8    1
    25     8     9    1
    26     8    10    2
    27    10    11    1
    28    29    23   ar
    29    11     1    1
    30    17    12   am
    31    11     5    1
    32    19    20    1
@<TRIPOS>MOLECULE
*****
 29 32 0 0 0
SMALL
GASTEIGER

@<TRIPOS>ATOM
      1 C          -6.0017  -16.3280   23.6488 C.2     1  UNL1        0.3279
      2 N          -7.0220  -17.0633   22.8313 N.2     1  UNL1       -0.0020
      3 C          -8.4331  -17.1843   23.3252 C.2     1  UNL1        0.3340
      4 C          -8.8240  -16.5700   24.6367 C.2     1  UNL1        0.0879
      5 C          -7.8037  -15.8347   25.4542 C.2     1  UNL1        0.0161
      6 C          -7.8941  -15.1310   26.7757 C.2     1  UNL1       -0.0100
      7 C          -9.1239  -15.0053   27.6253 C.3     1  UNL1        0.0320
      8 C          -6.5389  -14.5750   27.0986 C.2     1  UNL1        0.0509
      9 C          -6.1755  -13.7958   28.3278 C.3     1  UNL1        0.0513
     10 N          -5.6108  -14.9351   25.9765 N.2     1  UNL1       -0.2602
     11 C          -6.3926  -15.7136   24.9602 C.3     1  UNL1        0.2298
     12 N          -9.4535  -17.9197   22.5078 N.am    1  UNL1       -0.1358
     13 C          -9.7879  -19.3456   22.8317 C.3     1  UNL1        0.2422
     14 C         -10.8082  -20.0809   22.0143 C.3     1  UNL1        0.1940
     15 O         -11.4941  -19.3904   20.8729 O.3     1  UNL1       -0.3382
     16 C         -11.1597  -17.9645   20.5490 C.3     1  UNL1        0.2554
     17 C         -10.1393  -17.2291   21.3664 C.2     1  UNL1        0.3436
     18 O          -9.8049  -15.8032   21.0425 O.2     1  UNL1       -0.2440
     19 N          -4.5905  -16.2069   23.1548 N.pl3   1  UNL1       -0.2166
     20 H          -4.2397  -15.3299   22.8772 H       1  UNL1        0.2923
     21 C          -3.7139  -17.4221   23.0839 C.3     1  UNL1        0.2258
     22 C          -1.5512  -16.2935   21.3377 C.3     1  UNL1        0.0308
     23 C          -2.3334  -17.4903   20.8840 C.ar    1  UNL1       -0.0223
     24 C          -2.0342  -18.1228   19.5572 C.ar    1  UNL1       -0.0045
     25 C          -2.8164  -19.3196   19.1035 C.ar    1  UNL1       -0.0007
     26 C          -3.8977  -19.8839   19.9765 C.ar    1  UNL1       -0.0045
     27 C          -4.1969  -19.2514   21.3033 C.ar    1  UNL1       -0.0223
     28 C          -5.2783  -19.8157   22.1764 C.3     1  UNL1        0.0308
     29 C          -3.4147  -18.0545   21.7571 C.ar    1  UNL1        0.0162
@<TRIPOS>BOND
     1    22    23    1
     2    23    24   ar
     3    24    25   ar
     4    25    26   ar
     5    26    27   ar
     6    27    28    1
     7    27    29   ar
     8    29    21    1
     9    21    19    1
    10    19     1    1
    11     1     2    2
    12     2     3    1
    13     3    12    1
    14    12    13    1
    15    13    14    1
    16    14    15    1
    17    15    16    1
    18    16    17    1
    19    17    18    2
    20     3     4    2
    21     4     5    1
    22     5     6    2
    23     6     7    1
    24     6     8    1
    25     8     9    1
    26     8    10    2
    27    10    11    1
    28    29    23   ar
    29    11     1    1
    30    17    12   am
    31    11     5    1
    32    19    20    1
@<TRIPOS>MOLECULE
*****
 29 32 0 0 0
SMALL
GASTEIGER

@<TRIPOS>ATOM
      1 C          -6.7565  -18.2558   22.3074 C.2     1  UNL1        0.3279
      2 N          -5.4219  -18.4199   21.6426 N.2     1  UNL1       -0.0020
      3 C          -4.2369  -17.6454   22.1384 C.2     1  UNL1        0.3340
      4 C          -4.3864  -16.7068   23.2989 C.2     1  UNL1        0.0879
      5 C          -5.7210  -16.5427   23.9636 C.2     1  UNL1        0.0161
      6 C          -6.1698  -15.6980   25.1190 C.2     1  UNL1       -0.0100
      7 C          -5.3075  -14.7647   25.9161 C.3     1  UNL1        0.0320
      8 C          -7.6322  -15.9503   25.3374 C.2     1  UNL1        0.0509
      9 C          -8.4891  -15.3137   26.3912 C.3     1  UNL1        0.0513
     10 N          -8.0873  -16.9511   24.3169 N.2     1  UNL1       -0.2602
     11 C          -6.9061  -17.3172   23.4679 C.3     1  UNL1        0.2298
     12 N          -2.9022  -17.8094   21.4736 N.am    1  UNL1       -0.1358
     13 C          -2.0589  -16.6049   21.1772 C.3     1  UNL1        0.2422
     14 C          -0.7243  -16.7689   20.5124 C.3     1  UNL1        0.1940
     15 O          -0.2330  -18.1375   20.1441 O.3     1  UNL1       -0.3382
     16 C          -1.0763  -19.3421   20.4406 C.3     1  UNL1        0.2554
     17 C          -2.4110  -19.1780   21.1054 C.2     1  UNL1        0.3436
     18 O          -3.2543  -20.3825   21.4018 O.2     1  UNL1       -0.2440
     19 N          -7.9417  -19.0303   21.8116 N.pl3   1  UNL1       -0.2166
     20 H          -8.0349  -19.9844   22.0357 H       1  UNL1        0.2923
     21 C          -8.9847  -18.3510   20.9745 C.3     1  UNL1        0.2258
     22 C          -9.4172  -15.4091   21.3722 C.3     1  UNL1        0.0308
     23 C         -10.4677  -16.3872   21.8077 C.ar    1  UNL1       -0.0223
     24 C         -11.7345  -15.8944   22.4420 C.ar    1  UNL1       -0.0045
     25 C         -12.7850  -16.8726   22.8775 C.ar    1  UNL1       -0.0007
     26 C         -12.5688  -18.3435   22.6786 C.ar    1  UNL1       -0.0045
     27 C         -11.3020  -18.8363   22.0443 C.ar    1  UNL1       -0.0223
     28 C         -11.0858  -20.3073   21.8455 C.3     1  UNL1        0.0308
     29 C         -10.2514  -17.8582   21.6088 C.ar    1  UNL1        0.0162
@<TRIPOS>BOND
     1    22    23    1
     2    23    24   ar
     3    24    25   ar
     4    25    26   ar
     5    26    27   ar
     6    27    28    1
     7    27    29   ar
     8    29    21    1
     9    21    19    1
    10    19     1    1
    11     1     2    2
    12     2     3    1
    13     3    12    1
    14    12    13    1
    15    13    14    1
    16    14    15    1
    17    15    16    1
    18    16    17    1
    19    17    18    2
    20     3     4    2
    21     4     5    1
    22     5     6    2
    23     6     7    1
    24     6     8    1
    25     8     9    1
    26     8    10    2
    27    10    11    1
    28    29    23   ar
    29    11     1    1
    30    17    12   am
    31    11     5    1
    32    19    20    1
@<TRIPOS>MOLECULE
*****
 29 32 0 0 0
SMALL
GASTEIGER

@<TRIPOS>ATOM
      1 C          -6.0313  -16.3146   23.6260 C.2     1  UNL1        0.3279
      2 N          -7.0641  -17.0144   22.7933 N.2     1  UNL1       -0.0020
      3 C          -8.4791  -17.1137   23.2810 C.2     1  UNL1        0.3340
      4 C          -8.8613  -16.5130   24.6013 C.2     1  UNL1        0.0879
      5 C          -7.8285  -15.8132   25.4339 C.2     1  UNL1        0.0161
      6 C          -7.9084  -15.1297   26.7668 C.2     1  UNL1       -0.0100
      7 C          -9.1381  -14.9921   27.6146 C.3     1  UNL1        0.0320
      8 C          -6.5428  -14.6081   27.1029 C.2     1  UNL1        0.0509
      9 C          -6.1671  -13.8572   28.3460 C.3     1  UNL1        0.0513
     10 N          -5.6188  -14.9692   25.9778 N.2     1  UNL1       -0.2602
     11 C          -6.4135  -15.7139   24.9463 C.3     1  UNL1        0.2298
     12 N          -9.5121  -17.8136   22.4483 N.am    1  UNL1       -0.1358
     13 C         -10.3599  -17.0301   21.4905 C.3     1  UNL1        0.2422
     14 C         -11.3928  -17.7299   20.6578 C.3     1  UNL1        0.1940
     15 O         -11.5779  -19.2133   20.7830 O.3     1  UNL1       -0.3382
     16 C         -10.7301  -19.9967   21.7408 C.3     1  UNL1        0.2554
     17 C          -9.6971  -19.2968   22.5735 C.2     1  UNL1        0.3436
     18 O          -8.8493  -20.0802   23.5313 O.2     1  UNL1       -0.2440
     19 N          -4.6162  -16.2153   23.1384 N.pl3   1  UNL1       -0.2166
     20 H          -4.2533  -15.3454   22.8542 H       1  UNL1        0.2923
     21 C          -3.7540  -17.4416   23.0838 C.3     1  UNL1        0.2258
     22 C          -5.3345  -19.8333   22.1996 C.3     1  UNL1        0.0308
     23 C          -4.2470  -19.2871   21.3228 C.ar    1  UNL1       -0.0223
     24 C          -3.9496  -19.9368   20.0039 C.ar    1  UNL1       -0.0045
     25 C          -2.8620  -19.3906   19.1271 C.ar    1  UNL1       -0.0007
     26 C          -2.0718  -18.1948   19.5691 C.ar    1  UNL1       -0.0045
     27 C          -2.3691  -17.5451   20.8880 C.ar    1  UNL1       -0.0223
     28 C          -1.5788  -16.3493   21.3301 C.3     1  UNL1        0.0308
     29 C          -3.4567  -18.0913   21.7649 C.ar    1  UNL1        0.0162
@<TRIPOS>BOND
     1    22    23    1
     2    23    24   ar
     3    24    25   ar
     4    25    26   ar
     5    26    27   ar
     6    27    28    1
     7    27    29   ar
     8    29    21    1
     9    21    19    1
    10    19     1    1
    11     1     2    2
    12     2     3    1
    13     3    12    1
    14    12    13    1
    15    13    14    1
    16    14    15    1
    17    15    16    1
    18    16    17    1
    19    17    18    2
    20     3     4    2
    21     4     5    1
    22     5     6    2
    23     6     7    1
    24     6     8    1
    25     8     9    1
    26     8    10    2
    27    10    11    1
    28    29    23   ar
    29    11     1    1
    30    17    12   am
    31    11     5    1
    32    19    20    1
@<TRIPOS>MOLECULE
*****
 29 32 0 0 0
SMALL
GASTEIGER

@<TRIPOS>ATOM
      1 C          -7.0120  -18.4291   21.9162 C.2     1  UNL1        0.3279
      2 N          -6.7442  -17.6965   23.1974 N.2     1  UNL1       -0.0020
      3 C          -7.8469  -16.9338   23.8699 C.2     1  UNL1        0.3340
      4 C          -9.2175  -16.9037   23.2612 C.2     1  UNL1        0.0879
      5 C          -9.4854  -17.6362   21.9800 C.2     1  UNL1        0.0161
      6 C         -10.7258  -17.7863   21.1500 C.2     1  UNL1       -0.0100
      7 C         -12.0668  -17.1862   21.4524 C.3     1  UNL1        0.0320
      8 C         -10.3897  -18.6417   19.9645 C.2     1  UNL1        0.0509
      9 C         -11.3357  -19.0472   18.8733 C.3     1  UNL1        0.0513
     10 N          -8.9415  -19.0204   20.0618 N.2     1  UNL1       -0.2602
     11 C          -8.3826  -18.3989   21.3075 C.3     1  UNL1        0.2298
     12 N          -7.5790  -16.2012   25.1512 N.am    1  UNL1       -0.1358
     13 C          -8.4456  -16.4467   26.3507 C.3     1  UNL1        0.2422
     14 C          -8.1778  -15.7141   27.6319 C.3     1  UNL1        0.1940
     15 O          -7.0434  -14.7361   27.7137 O.3     1  UNL1       -0.3382
     16 C          -6.1768  -14.4906   26.5142 C.3     1  UNL1        0.2554
     17 C          -6.4447  -15.2232   25.2329 C.2     1  UNL1        0.3436
     18 O          -5.5781  -14.9777   24.0334 O.2     1  UNL1       -0.2440
     19 N          -5.9093  -19.1918   21.2436 N.pl3   1  UNL1       -0.2166
     20 H          -6.0691  -19.6237   20.3735 H       1  UNL1        0.2923
     21 C          -4.5631  -19.2964   21.8969 C.3     1  UNL1        0.2258
     22 C          -3.4618  -20.1815   19.2504 C.3     1  UNL1        0.0308
     23 C          -2.8324  -19.0304   19.9775 C.ar    1  UNL1       -0.0223
     24 C          -1.6524  -18.3217   19.3813 C.ar    1  UNL1       -0.0045
     25 C          -1.0230  -17.1705   20.1084 C.ar    1  UNL1       -0.0007
     26 C          -1.5736  -16.7280   21.4316 C.ar    1  UNL1       -0.0045
     27 C          -2.7536  -17.4366   22.0278 C.ar    1  UNL1       -0.0223
     28 C          -3.3043  -16.9940   23.3510 C.3     1  UNL1        0.0308
     29 C          -3.3831  -18.5878   21.3007 C.ar    1  UNL1        0.0162
@<TRIPOS>BOND
     1    22    23    1
     2    23    24   ar
     3    24    25   ar
     4    25    26   ar
     5    26    27   ar
     6    27    28    1
     7    27    29   ar
     8    29    21    1
     9    21    19    1
    10    19     1    1
    11     1     2    2
    12     2     3    1
    13     3    12    1
    14    12    13    1
    15    13    14    1
    16    14    15    1
    17    15    16    1
    18    16    17    1
    19    17    18    2
    20     3     4    2
    21     4     5    1
    22     5     6    2
    23     6     7    1
    24     6     8    1
    25     8     9    1
    26     8    10    2
    27    10    11    1
    28    29    23   ar
    29    11     1    1
    30    17    12   am
    31    11     5    1
    32    19    20    1
@<TRIPOS>MOLECULE
*****
 29 32 0 0 0
SMALL
GASTEIGER

@<TRIPOS>ATOM
      1 C          -7.7617  -16.0350   23.0120 C.2     1  UNL1        0.3279
      2 N          -6.5699  -16.6874   22.3765 N.2     1  UNL1       -0.0020
      3 C          -5.3897  -17.0748   23.2173 C.2     1  UNL1        0.3340
      4 C          -5.4013  -16.8097   24.6936 C.2     1  UNL1        0.0879
      5 C          -6.5930  -16.1573   25.3292 C.2     1  UNL1        0.0161
      6 C          -6.8891  -15.7731   26.7486 C.2     1  UNL1       -0.0100
      7 C          -5.9813  -15.9779   27.9250 C.3     1  UNL1        0.0320
      8 C          -8.2523  -15.1484   26.7851 C.2     1  UNL1        0.0509
      9 C          -8.9471  -14.6186   28.0044 C.3     1  UNL1        0.0513
     10 N          -8.7988  -15.1463   25.3882 N.2     1  UNL1       -0.2602
     11 C          -7.7733  -15.7699   24.4884 C.3     1  UNL1        0.2298
     12 N          -4.1979  -17.7272   22.5817 N.am    1  UNL1       -0.1358
     13 C          -2.9208  -16.9580   22.4169 C.3     1  UNL1        0.2422
     14 C          -1.7289  -17.6104   21.7814 C.3     1  UNL1        0.1940
     15 O          -1.8142  -19.0321   21.3107 O.3     1  UNL1       -0.3382
     16 C          -3.0913  -19.8014   21.4756 C.3     1  UNL1        0.2554
     17 C          -4.2832  -19.1489   22.1111 C.2     1  UNL1        0.3436
     18 O          -5.5603  -19.9182   22.2760 O.2     1  UNL1       -0.2440
     19 N          -8.9420  -15.6476   22.1712 N.pl3   1  UNL1       -0.2166
     20 H          -8.8294  -15.0124   21.4275 H       1  UNL1        0.2923
     21 C         -10.2939  -16.2279   22.4636 C.3     1  UNL1        0.2258
     22 C         -11.0598  -17.0839   19.6922 C.3     1  UNL1        0.0308
     23 C         -10.9509  -18.1019   20.7884 C.ar    1  UNL1       -0.0223
     24 C         -11.2249  -19.5481   20.4989 C.ar    1  UNL1       -0.0045
     25 C         -11.1159  -20.5661   21.5951 C.ar    1  UNL1       -0.0007
     26 C         -10.7330  -20.1381   22.9808 C.ar    1  UNL1       -0.0045
     27 C         -10.4590  -18.6921   23.2703 C.ar    1  UNL1       -0.0223
     28 C         -10.0761  -18.2641   24.6560 C.3     1  UNL1        0.0308
     29 C         -10.5679  -17.6739   22.1741 C.ar    1  UNL1        0.0162
@<TRIPOS>BOND
     1    22    23    1
     2    23    24   ar
     3    24    25   ar
     4    25    26   ar
     5    26    27   ar
     6    27    28    1
     7    27    29   ar
     8    29    21    1
     9    21    19    1
    10    19     1    1
    11     1     2    2
    12     2     3    1
    13     3    12    1
    14    12    13    1
    15    13    14    1
    16    14    15    1
    17    15    16    1
    18    16    17    1
    19    17    18    2
    20     3     4    2
    21     4     5    1
    22     5     6    2
    23     6     7    1
    24     6     8    1
    25     8     9    1
    26     8    10    2
    27    10    11    1
    28    29    23   ar
    29    11     1    1
    30    17    12   am
    31    11     5    1
    32    19    20    1
@<TRIPOS>MOLECULE
*****
 29 32 0 0 0
SMALL
GASTEIGER

@<TRIPOS>ATOM
      1 C          -6.3306  -19.6160   21.1353 C.2     1  UNL1        0.3279
      2 N          -6.5001  -18.6671   22.2845 N.2     1  UNL1       -0.0020
      3 C          -7.8057  -17.9558   22.4834 C.2     1  UNL1        0.3340
      4 C          -8.9416  -18.1934   21.5330 C.2     1  UNL1        0.0879
      5 C          -8.7720  -19.1423   20.3838 C.2     1  UNL1        0.0161
      6 C          -9.7060  -19.5739   19.2923 C.2     1  UNL1       -0.0100
      7 C         -11.1200  -19.1091   19.1069 C.3     1  UNL1        0.0320
      8 C          -8.9777  -20.5521   18.4189 C.2     1  UNL1        0.0509
      9 C          -9.5357  -21.2371   17.2066 C.3     1  UNL1        0.0513
     10 N          -7.5936  -20.7250   18.9705 N.2     1  UNL1       -0.2602
     11 C          -7.4665  -19.8536   20.1849 C.3     1  UNL1        0.2298
     12 N          -7.9753  -17.0069   23.6327 N.am    1  UNL1       -0.1358
     13 C          -7.2243  -15.7085   23.6504 C.3     1  UNL1        0.2422
     14 C          -7.3939  -14.7596   24.7996 C.3     1  UNL1        0.1940
     15 O          -8.3145  -15.1090   25.9312 O.3     1  UNL1       -0.3382
     16 C          -9.0656  -16.4073   25.9135 C.3     1  UNL1        0.2554
     17 C          -8.8959  -17.3563   24.7642 C.2     1  UNL1        0.3436
     18 O          -9.6469  -18.6546   24.7464 O.2     1  UNL1       -0.2440
     19 N          -5.0250  -20.3274   20.9364 N.pl3   1  UNL1       -0.2166
     20 H          -4.9495  -21.0374   20.2585 H       1  UNL1        0.2923
     21 C          -3.8344  -19.9570   21.7703 C.3     1  UNL1        0.2258
     22 C          -3.5295  -17.8687   23.9024 C.3     1  UNL1        0.0308
     23 C          -2.9269  -17.6496   22.5464 C.ar    1  UNL1       -0.0223
     24 C          -2.1719  -16.3864   22.2563 C.ar    1  UNL1       -0.0045
     25 C          -1.5693  -16.1673   20.9003 C.ar    1  UNL1       -0.0007
     26 C          -1.7217  -17.2114   19.8342 C.ar    1  UNL1       -0.0045
     27 C          -2.4768  -18.4747   20.1242 C.ar    1  UNL1       -0.0223
     28 C          -2.6292  -19.5188   19.0581 C.3     1  UNL1        0.0308
     29 C          -3.0794  -18.6938   21.4803 C.ar    1  UNL1        0.0162
@<TRIPOS>BOND
     1    22    23    1
     2    23    24   ar
     3    24    25   ar
     4    25    26   ar
     5    26    27   ar
     6    27    28    1
     7    27    29   ar
     8    29    21    1
     9    21    19    1
    10    19     1    1
    11     1     2    2
    12     2     3    1
    13     3    12    1
    14    12    13    1
    15    13    14    1
    16    14    15    1
    17    15    16    1
    18    16    17    1
    19    17    18    2
    20     3     4    2
    21     4     5    1
    22     5     6    2
    23     6     7    1
    24     6     8    1
    25     8     9    1
    26     8    10    2
    27    10    11    1
    28    29    23   ar
    29    11     1    1
    30    17    12   am
    31    11     5    1
    32    19    20    1
