@<TRIPOS>MOLECULE
*****
 22 24 0 0 0
SMALL
GASTEIGER

@<TRIPOS>ATOM
      1 C          -8.4813  -17.5599   22.1629 C.2     1  UNL1        0.1700
      2 O          -9.5781  -17.3725   21.1570 O.2     1  UNL1       -0.2916
      3 C          -7.2593  -18.3513   21.8015 C.2     1  UNL1        0.0192
      4 C          -7.3754  -19.5346   20.8871 C.2     1  UNL1        0.0301
      5 C          -6.1534  -20.3260   20.5258 C.2     1  UNL1        0.1571
      6 F          -6.2696  -21.5094   19.6113 F       1  UNL1       -0.2026
      7 C          -4.8154  -19.9340   21.0789 C.2     1  UNL1        0.1050
      8 N          -3.4456  -20.5190   20.9017 N.2     1  UNL1       -0.2419
      9 C          -2.4829  -19.6972   21.7066 C.2     1  UNL1        0.0986
     10 C          -3.2578  -18.6043   22.3813 C.2     1  UNL1        0.0183
     11 C          -4.6993  -18.7507   21.9934 C.2     1  UNL1        0.0037
     12 C          -5.9213  -17.9593   22.3547 C.3     1  UNL1        0.0572
     13 C          -8.6063  -16.9559   23.5302 C.3     1  UNL1        0.0710
     14 C          -8.8567  -16.6292   24.9727 C.3     1  UNL1        0.0257
     15 C          -8.3859  -15.2265   25.2187 C.3     1  UNL1        0.0690
     16 N          -7.8445  -14.6862   23.9284 N.3     1  UNL1       -0.2971
     17 C          -7.9808  -15.7549   22.8848 C.3     1  UNL1        0.0758
     18 H          -6.8620  -14.4371   24.0426 H       1  UNL1        0.1233
     19 C          -9.2058  -18.2830   23.8897 C.3     1  UNL1        0.0086
     20 C         -10.5719  -18.3468   24.5058 C.3     1  UNL1        0.0005
     21 C         -12.6796  -17.7051   23.1290 C.3     1  UNL1        0.0000
     22 C         -11.7522  -18.7509   23.6729 C.3     1  UNL1        0.0000
@<TRIPOS>BOND
     1    21    22    1
     2    22    20    1
     3    20    19    1
     4    19    13    1
     5    13     1    1
     6     1     2    2
     7     1     3    1
     8     3     4    2
     9     4     5    1
    10     5     6    1
    11     5     7    2
    12     7     8    1
    13     8     9    2
    14     9    10    1
    15    10    11    2
    16    11    12    1
    17    13    14    1
    18    14    15    1
    19    15    16    1
    20    16    17    1
    21    17    13    1
    22    12     3    1
    23    11     7    1
    24    16    18    1
@<TRIPOS>MOLECULE
*****
 22 24 0 0 0
SMALL
GASTEIGER

@<TRIPOS>ATOM
      1 C          -9.7296  -19.3140   20.1490 C.2     1  UNL1        0.1700
      2 O          -9.9283  -20.0068   18.8336 O.2     1  UNL1       -0.2916
      3 C          -8.3462  -19.1333   20.7001 C.2     1  UNL1        0.0192
      4 C          -8.1033  -18.1555   21.8113 C.2     1  UNL1        0.0301
      5 C          -6.7199  -17.9748   22.3623 C.2     1  UNL1        0.1571
      6 F          -6.4770  -16.9969   23.4736 F       1  UNL1       -0.2026
      7 C          -5.5794  -18.7719   21.8021 C.2     1  UNL1        0.1050
      8 N          -4.1185  -18.8082   22.1404 N.2     1  UNL1       -0.2419
      9 C          -3.4586  -19.8085   21.2383 C.2     1  UNL1        0.0986
     10 C          -4.5116  -20.3904   20.3424 C.2     1  UNL1        0.0183
     11 C          -5.8223  -19.7498   20.6908 C.2     1  UNL1        0.0037
     12 C          -7.2057  -19.9304   20.1398 C.3     1  UNL1        0.0572
     13 C         -10.9142  -18.8019   20.9135 C.3     1  UNL1        0.0710
     14 C         -12.0456  -18.5377   21.8623 C.3     1  UNL1        0.0257
     15 C         -12.7517  -17.2951   21.4071 C.3     1  UNL1        0.0690
     16 N         -12.0567  -16.7912   20.1771 N.3     1  UNL1       -0.2971
     17 C         -10.9211  -17.7224   19.8719 C.3     1  UNL1        0.0758
     18 H         -11.6982  -15.8508   20.3427 H       1  UNL1        0.1233
     19 C         -10.6596  -19.9884   21.7952 C.3     1  UNL1        0.0086
     20 C         -11.0840  -19.9586   23.2336 C.3     1  UNL1        0.0005
     21 C          -9.8232  -18.7085   25.1304 C.3     1  UNL1        0.0000
     22 C         -10.0502  -19.9505   24.3206 C.3     1  UNL1        0.0000
@<TRIPOS>BOND
     1    21    22    1
     2    22    20    1
     3    20    19    1
     4    19    13    1
     5    13     1    1
     6     1     2    2
     7     1     3    1
     8     3     4    2
     9     4     5    1
    10     5     6    1
    11     5     7    2
    12     7     8    1
    13     8     9    2
    14     9    10    1
    15    10    11    2
    16    11    12    1
    17    13    14    1
    18    14    15    1
    19    15    16    1
    20    16    17    1
    21    17    13    1
    22    12     3    1
    23    11     7    1
    24    16    18    1
@<TRIPOS>MOLECULE
*****
 22 24 0 0 0
SMALL
GASTEIGER

@<TRIPOS>ATOM
      1 C          -9.8207  -16.4475   22.1626 C.2     1  UNL1        0.1700
      2 O          -9.7369  -15.8197   20.8030 O.2     1  UNL1       -0.2916
      3 C          -8.7842  -16.1315   23.1999 C.2     1  UNL1        0.0192
      4 C          -7.3558  -15.9218   22.7933 C.2     1  UNL1        0.0301
      5 C          -6.3193  -15.6057   23.8306 C.2     1  UNL1        0.1571
      6 F          -4.8907  -15.3960   23.4238 F       1  UNL1       -0.2026
      7 C          -6.7114  -15.4995   25.2745 C.2     1  UNL1        0.1050
      8 N          -5.9161  -15.2028   26.5112 N.2     1  UNL1       -0.2419
      9 C          -6.8532  -15.2292   27.6822 C.2     1  UNL1        0.0986
     10 C          -8.2275  -15.5422   27.1692 C.2     1  UNL1        0.0183
     11 C          -8.1399  -15.7092   25.6811 C.2     1  UNL1        0.0037
     12 C          -9.1763  -16.0252   24.6439 C.3     1  UNL1        0.0572
     13 C         -10.9410  -17.3913   22.4852 C.3     1  UNL1        0.0710
     14 C         -11.8446  -18.5567   22.7603 C.3     1  UNL1        0.0257
     15 C         -13.2059  -18.0200   23.0898 C.3     1  UNL1        0.0690
     16 N         -13.1438  -16.5230   23.0183 N.3     1  UNL1       -0.2971
     17 C         -11.7441  -16.1344   22.6446 C.3     1  UNL1        0.0758
     18 H         -13.3837  -16.1229   23.9254 H       1  UNL1        0.1233
     19 C          -9.9038  -18.4509   22.2583 C.3     1  UNL1        0.0086
     20 C         -10.1552  -19.5459   21.2644 C.3     1  UNL1        0.0005
     21 C          -8.6737  -19.7125   19.1366 C.3     1  UNL1        0.0000
     22 C          -9.9512  -19.2912   19.8003 C.3     1  UNL1        0.0000
@<TRIPOS>BOND
     1    21    22    1
     2    22    20    1
     3    20    19    1
     4    19    13    1
     5    13     1    1
     6     1     2    2
     7     1     3    1
     8     3     4    2
     9     4     5    1
    10     5     6    1
    11     5     7    2
    12     7     8    1
    13     8     9    2
    14     9    10    1
    15    10    11    2
    16    11    12    1
    17    13    14    1
    18    14    15    1
    19    15    16    1
    20    16    17    1
    21    17    13    1
    22    12     3    1
    23    11     7    1
    24    16    18    1
@<TRIPOS>MOLECULE
*****
 22 24 0 0 0
SMALL
GASTEIGER

@<TRIPOS>ATOM
      1 C         -10.8619  -18.9156   21.8311 C.2     1  UNL1        0.1700
      2 O         -11.0404  -19.8701   20.6879 O.2     1  UNL1       -0.2916
      3 C          -9.4930  -18.4118   22.1808 C.2     1  UNL1        0.0192
      4 C          -8.2926  -19.2815   21.9519 C.2     1  UNL1        0.0301
      5 C          -6.9236  -18.7777   22.3017 C.2     1  UNL1        0.1571
      6 F          -5.7232  -19.6475   22.0727 F       1  UNL1       -0.2026
      7 C          -6.7553  -17.4041   22.8803 C.2     1  UNL1        0.1050
      8 N          -5.5402  -16.6420   23.3194 N.2     1  UNL1       -0.2419
      9 C          -5.9897  -15.3013   23.8196 C.2     1  UNL1        0.0986
     10 C          -7.4826  -15.2347   23.6898 C.2     1  UNL1        0.0183
     11 C          -7.9557  -16.5344   23.1092 C.2     1  UNL1        0.0037
     12 C          -9.3246  -17.0382   22.7595 C.3     1  UNL1        0.0572
     13 C         -12.0523  -18.4648   22.6246 C.3     1  UNL1        0.0710
     14 C         -13.3417  -17.9002   23.1433 C.3     1  UNL1        0.0257
     15 C         -13.4164  -18.1898   24.6131 C.3     1  UNL1        0.0690
     16 N         -12.1734  -18.9333   25.0029 N.3     1  UNL1       -0.2971
     17 C         -11.3303  -19.1033   23.7740 C.3     1  UNL1        0.0758
     18 H         -12.4212  -19.8473   25.3818 H       1  UNL1        0.1233
     19 C         -12.5255  -17.9206   21.3094 C.3     1  UNL1        0.0086
     20 C         -12.4667  -16.4456   21.0432 C.3     1  UNL1        0.0005
     21 C         -10.6499  -15.3833   19.5197 C.3     1  UNL1        0.0000
     22 C         -12.0300  -15.9428   19.6991 C.3     1  UNL1        0.0000
@<TRIPOS>BOND
     1    21    22    1
     2    22    20    1
     3    20    19    1
     4    19    13    1
     5    13     1    1
     6     1     2    2
     7     1     3    1
     8     3     4    2
     9     4     5    1
    10     5     6    1
    11     5     7    2
    12     7     8    1
    13     8     9    2
    14     9    10    1
    15    10    11    2
    16    11    12    1
    17    13    14    1
    18    14    15    1
    19    15    16    1
    20    16    17    1
    21    17    13    1
    22    12     3    1
    23    11     7    1
    24    16    18    1
@<TRIPOS>MOLECULE
*****
 22 24 0 0 0
SMALL
GASTEIGER

@<TRIPOS>ATOM
      1 C          -9.5535  -19.1009   20.7173 C.2     1  UNL1        0.1700
      2 O          -9.4848  -19.8966   19.4477 O.2     1  UNL1       -0.2916
      3 C          -8.2902  -18.6576   21.3940 C.2     1  UNL1        0.0192
      4 C          -7.0506  -19.4958   21.2913 C.2     1  UNL1        0.0301
      5 C          -5.7873  -19.0525   21.9680 C.2     1  UNL1        0.1571
      6 F          -4.5476  -19.8908   21.8652 F       1  UNL1       -0.2026
      7 C          -5.7638  -17.7711   22.7473 C.2     1  UNL1        0.1050
      8 N          -4.6742  -17.0831   23.5150 N.2     1  UNL1       -0.2419
      9 C          -5.2406  -15.8197   24.0922 C.2     1  UNL1        0.0986
     10 C          -6.6802  -15.7269   23.6811 C.2     1  UNL1        0.0183
     11 C          -7.0036  -16.9329   22.8499 C.2     1  UNL1        0.0037
     12 C          -8.2668  -17.3762   22.1733 C.3     1  UNL1        0.0572
     13 C         -10.8854  -18.7483   21.3104 C.3     1  UNL1        0.0710
     14 C         -12.1519  -18.6269   22.1050 C.3     1  UNL1        0.0257
     15 C         -12.9689  -17.5195   21.5085 C.3     1  UNL1        0.0690
     16 N         -12.2075  -16.9564   20.3453 N.3     1  UNL1       -0.2971
     17 C         -10.9197  -17.7158   20.2229 C.3     1  UNL1        0.0758
     18 H         -12.0126  -15.9680   20.5050 H       1  UNL1        0.1233
     19 C         -10.5726  -19.8545   22.2740 C.3     1  UNL1        0.0086
     20 C         -10.9660  -19.7268   23.7159 C.3     1  UNL1        0.0005
     21 C          -9.6819  -18.2656   25.4380 C.3     1  UNL1        0.0000
     22 C          -9.9099  -19.5903   24.7722 C.3     1  UNL1        0.0000
@<TRIPOS>BOND
     1    21    22    1
     2    22    20    1
     3    20    19    1
     4    19    13    1
     5    13     1    1
     6     1     2    2
     7     1     3    1
     8     3     4    2
     9     4     5    1
    10     5     6    1
    11     5     7    2
    12     7     8    1
    13     8     9    2
    14     9    10    1
    15    10    11    2
    16    11    12    1
    17    13    14    1
    18    14    15    1
    19    15    16    1
    20    16    17    1
    21    17    13    1
    22    12     3    1
    23    11     7    1
    24    16    18    1
@<TRIPOS>MOLECULE
*****
 22 24 0 0 0
SMALL
GASTEIGER

@<TRIPOS>ATOM
      1 C         -10.7458  -19.0309   21.7551 C.2     1  UNL1        0.1700
      2 O         -10.9575  -20.0330   20.6593 O.2     1  UNL1       -0.2916
      3 C          -9.3631  -18.5376   22.0634 C.2     1  UNL1        0.0192
      4 C          -9.1586  -17.1327   22.5472 C.2     1  UNL1        0.0301
      5 C          -7.7759  -16.6394   22.8556 C.2     1  UNL1        0.1571
      6 F          -7.5715  -15.2343   23.3395 F       1  UNL1       -0.2026
      7 C          -6.5979  -17.5511   22.6801 C.2     1  UNL1        0.1050
      8 N          -5.1286  -17.3468   22.9026 N.2     1  UNL1       -0.2419
      9 C          -4.4251  -18.6255   22.5563 C.2     1  UNL1        0.0986
     10 C          -5.4596  -19.6201   22.1198 C.2     1  UNL1        0.0183
     11 C          -6.8024  -18.9562   22.1963 C.2     1  UNL1        0.0037
     12 C          -8.1851  -19.4494   21.8880 C.3     1  UNL1        0.0572
     13 C         -11.9166  -18.5220   22.5426 C.3     1  UNL1        0.0710
     14 C         -13.1824  -17.9001   23.0535 C.3     1  UNL1        0.0257
     15 C         -13.2656  -18.1628   24.5279 C.3     1  UNL1        0.0690
     16 N         -12.0513  -18.9470   24.9283 N.3     1  UNL1       -0.2971
     17 C         -11.2175  -19.1691   23.7013 C.3     1  UNL1        0.0758
     18 H         -12.3333  -19.8446   25.3222 H       1  UNL1        0.1233
     19 C         -12.3709  -17.9813   21.2192 C.3     1  UNL1        0.0086
     20 C         -12.4417  -16.4993   20.9989 C.3     1  UNL1        0.0005
     21 C         -10.6990  -15.3479   19.4537 C.3     1  UNL1        0.0000
     22 C         -12.0691  -15.9205   19.6662 C.3     1  UNL1        0.0000
@<TRIPOS>BOND
     1    21    22    1
     2    22    20    1
     3    20    19    1
     4    19    13    1
     5    13     1    1
     6     1     2    2
     7     1     3    1
     8     3     4    2
     9     4     5    1
    10     5     6    1
    11     5     7    2
    12     7     8    1
    13     8     9    2
    14     9    10    1
    15    10    11    2
    16    11    12    1
    17    13    14    1
    18    14    15    1
    19    15    16    1
    20    16    17    1
    21    17    13    1
    22    12     3    1
    23    11     7    1
    24    16    18    1
@<TRIPOS>MOLECULE
*****
 22 24 0 0 0
SMALL
GASTEIGER

@<TRIPOS>ATOM
      1 C          -8.6838  -19.1478   21.5793 C.2     1  UNL1        0.1700
      2 O          -9.4515  -19.4062   20.3169 O.2     1  UNL1       -0.2916
      3 C          -7.1842  -19.1807   21.5652 C.2     1  UNL1        0.0192
      4 C          -6.4628  -20.0913   20.6164 C.2     1  UNL1        0.0301
      5 C          -4.9632  -20.1242   20.6024 C.2     1  UNL1        0.1571
      6 F          -4.2419  -21.0350   19.6535 F       1  UNL1       -0.2026
      7 C          -4.1850  -19.2464   21.5371 C.2     1  UNL1        0.1050
      8 N          -2.7114  -19.0638   21.7495 N.2     1  UNL1       -0.2419
      9 C          -2.5221  -18.0403   22.8295 C.2     1  UNL1        0.0986
     10 C          -3.8786  -17.5903   23.2847 C.2     1  UNL1        0.0183
     11 C          -4.9064  -18.3357   22.4859 C.2     1  UNL1        0.0037
     12 C          -6.4060  -18.3028   22.4999 C.3     1  UNL1        0.0572
     13 C          -9.4155  -18.8564   22.8558 C.3     1  UNL1        0.0710
     14 C         -10.2080  -18.2892   23.9962 C.3     1  UNL1        0.0257
     15 C         -10.2545  -19.3191   25.0858 C.3     1  UNL1        0.0690
     16 N          -9.4908  -20.5227   24.6188 N.3     1  UNL1       -0.2971
     17 C          -8.9723  -20.2368   23.2407 C.3     1  UNL1        0.0758
     18 H         -10.1065  -21.3355   24.5953 H       1  UNL1        0.1233
     19 C          -9.7058  -17.5369   22.2041 C.3     1  UNL1        0.0086
     20 C         -11.0788  -16.9401   22.2977 C.3     1  UNL1        0.0005
     21 C         -11.4732  -16.3250   19.8045 C.3     1  UNL1        0.0000
     22 C         -11.9696  -16.9151   21.0911 C.3     1  UNL1        0.0000
@<TRIPOS>BOND
     1    21    22    1
     2    22    20    1
     3    20    19    1
     4    19    13    1
     5    13     1    1
     6     1     2    2
     7     1     3    1
     8     3     4    2
     9     4     5    1
    10     5     6    1
    11     5     7    2
    12     7     8    1
    13     8     9    2
    14     9    10    1
    15    10    11    2
    16    11    12    1
    17    13    14    1
    18    14    15    1
    19    15    16    1
    20    16    17    1
    21    17    13    1
    22    12     3    1
    23    11     7    1
    24    16    18    1
@<TRIPOS>MOLECULE
*****
 22 24 0 0 0
SMALL
GASTEIGER

@<TRIPOS>ATOM
      1 C          -8.5057  -18.5039   21.8607 C.2     1  UNL1        0.1700
      2 O          -9.1867  -18.4298   20.5264 O.2     1  UNL1       -0.2916
      3 C          -7.0080  -18.5387   21.9376 C.2     1  UNL1        0.0192
      4 C          -6.2888  -17.6901   22.9437 C.2     1  UNL1        0.0301
      5 C          -4.7911  -17.7249   23.0206 C.2     1  UNL1        0.1571
      6 F          -4.0718  -16.8762   24.0268 F       1  UNL1       -0.2026
      7 C          -4.0128  -18.6084   22.0913 C.2     1  UNL1        0.1050
      8 N          -2.5408  -18.8504   21.9342 N.2     1  UNL1       -0.2419
      9 C          -2.3504  -19.8487   20.8309 C.2     1  UNL1        0.0986
     10 C          -3.7047  -20.2236   20.3061 C.2     1  UNL1        0.0183
     11 C          -4.7321  -19.4571   21.0851 C.2     1  UNL1        0.0037
     12 C          -6.2297  -19.4223   21.0083 C.3     1  UNL1        0.0572
     13 C          -9.3223  -18.5433   23.1184 C.3     1  UNL1        0.0710
     14 C         -10.1978  -18.2823   24.3081 C.3     1  UNL1        0.0257
     15 C         -10.2864  -19.5497   25.1053 C.3     1  UNL1        0.0690
     16 N          -9.4657  -20.5941   24.4084 N.3     1  UNL1       -0.2971
     17 C          -8.8698  -19.9721   23.1804 C.3     1  UNL1        0.0758
     18 H         -10.0584  -21.3812   24.1449 H       1  UNL1        0.1233
     19 C          -9.6041  -17.1063   22.7935 C.3     1  UNL1        0.0086
     20 C         -10.9887  -16.5558   22.9663 C.3     1  UNL1        0.0005
     21 C         -12.7760  -17.6824   21.4543 C.3     1  UNL1        0.0000
     22 C         -11.9236  -16.4961   21.7948 C.3     1  UNL1        0.0000
@<TRIPOS>BOND
     1    21    22    1
     2    22    20    1
     3    20    19    1
     4    19    13    1
     5    13     1    1
     6     1     2    2
     7     1     3    1
     8     3     4    2
     9     4     5    1
    10     5     6    1
    11     5     7    2
    12     7     8    1
    13     8     9    2
    14     9    10    1
    15    10    11    2
    16    11    12    1
    17    13    14    1
    18    14    15    1
    19    15    16    1
    20    16    17    1
    21    17    13    1
    22    12     3    1
    23    11     7    1
    24    16    18    1
@<TRIPOS>MOLECULE
*****
 22 24 0 0 0
SMALL
GASTEIGER

@<TRIPOS>ATOM
      1 C          -8.4894  -18.4484   21.9540 C.2     1  UNL1        0.1700
      2 O          -9.2919  -18.0367   20.7556 O.2     1  UNL1       -0.2916
      3 C          -7.0279  -18.7537   21.8092 C.2     1  UNL1        0.0192
      4 C          -6.5724  -19.7926   20.8279 C.2     1  UNL1        0.0301
      5 C          -5.1109  -20.0980   20.6831 C.2     1  UNL1        0.1571
      6 F          -4.6555  -21.1369   19.7016 F       1  UNL1       -0.2026
      7 C          -4.1050  -19.3643   21.5197 C.2     1  UNL1        0.1050
      8 N          -2.6095  -19.4502   21.5963 N.2     1  UNL1       -0.2419
      9 C          -2.1407  -18.4644   22.6250 C.2     1  UNL1        0.0986
     10 C          -3.3465  -17.7692   23.1842 C.2     1  UNL1        0.0183
     11 C          -4.5606  -18.3254   22.5011 C.2     1  UNL1        0.0037
     12 C          -6.0220  -18.0201   22.6458 C.3     1  UNL1        0.0572
     13 C          -9.1482  -18.5547   23.2974 C.3     1  UNL1        0.0710
     14 C          -9.8291  -18.3492   24.6181 C.3     1  UNL1        0.0257
     15 C         -10.0065  -19.6921   25.2621 C.3     1  UNL1        0.0690
     16 N          -9.4353  -20.7277   24.3395 N.3     1  UNL1       -0.2971
     17 C          -8.9048  -20.0248   23.1253 C.3     1  UNL1        0.0758
     18 H         -10.1635  -21.3878   24.0669 H       1  UNL1        0.1233
     19 C          -9.2539  -17.0624   23.1887 C.3     1  UNL1        0.0086
     20 C          -9.3858  -16.2276   24.4279 C.3     1  UNL1        0.0005
     21 C          -7.1646  -15.0049   23.8610 C.3     1  UNL1        0.0000
     22 C          -8.2876  -15.2825   24.8160 C.3     1  UNL1        0.0000
@<TRIPOS>BOND
     1    21    22    1
     2    22    20    1
     3    20    19    1
     4    19    13    1
     5    13     1    1
     6     1     2    2
     7     1     3    1
     8     3     4    2
     9     4     5    1
    10     5     6    1
    11     5     7    2
    12     7     8    1
    13     8     9    2
    14     9    10    1
    15    10    11    2
    16    11    12    1
    17    13    14    1
    18    14    15    1
    19    15    16    1
    20    16    17    1
    21    17    13    1
    22    12     3    1
    23    11     7    1
    24    16    18    1
