@<TRIPOS>MOLECULE
*****
 38 42 0 0 0
SMALL
GASTEIGER

@<TRIPOS>ATOM
      1 C         -13.1348   -4.8339   19.5995 C.ar    1  UNL1        0.0104
      2 C         -14.5033   -5.4219   19.4219 C.ar    1  UNL1        0.0078
      3 C         -14.6723   -6.7219   18.6930 C.ar    1  UNL1        0.1095
      4 C         -13.4728   -7.4340   18.1416 C.ar    1  UNL1        0.2691
      5 O         -13.6417   -8.7340   17.4126 O.2     1  UNL1       -0.2665
      6 N         -12.1042   -6.8460   18.3191 N.ar    1  UNL1       -0.2733
      7 C         -10.9047   -7.5581   17.7677 C.ar    1  UNL1        0.0829
      8 C          -9.5362   -6.9701   17.9452 C.ar    1  UNL1        0.0191
      9 C          -9.3673   -5.6701   18.6741 C.ar    1  UNL1        0.0030
     10 C         -10.5668   -4.9580   19.2256 C.ar    1  UNL1        0.0174
     11 C         -11.9352   -5.5460   19.0480 C.ar    1  UNL1        0.0642
     12 C         -16.0408   -7.3099   18.5155 C.2     1  UNL1        0.2505
     13 O         -17.1016   -7.0658   19.5476 O.2     1  UNL1       -0.2700
     14 N         -16.3485   -8.1419   17.3060 N.am    1  UNL1       -0.3000
     15 H         -15.6523   -8.3021   16.6286 H       1  UNL1        0.1498
     16 C         -17.7170   -8.7298   17.1285 C.3     1  UNL1        0.0986
     17 C         -18.7615   -7.9791   16.3567 C.3     1  UNL1        0.0220
     18 C         -20.1300   -8.5670   16.1793 C.3     1  UNL1        0.0019
     19 C         -20.4541   -9.9056   16.7735 C.3     1  UNL1        0.0026
     20 C         -19.4097  -10.6563   17.5452 C.3     1  UNL1        0.0309
     21 C         -18.0411  -10.0684   17.7227 C.3     1  UNL1        0.1283
     22 O         -16.9967  -10.8191   18.4945 O.3     1  UNL1       -0.3828
     23 H         -17.3673  -11.6591   18.8075 H       1  UNL1        0.2104
     24 C         -12.9659   -3.5339   20.3284 C.3     1  UNL1        0.1006
     25 C         -13.6202    0.3588   18.1677 C.3     1  UNL1        0.1170
     26 C         -14.7774   -0.3450   18.8123 C.3     1  UNL1        0.0371
     27 C         -14.5594   -1.6425   19.5325 C.3     1  UNL1        0.0738
     28 N         -13.1840   -2.2364   19.6082 N.3     1  UNL1       -0.2688
     29 C         -12.0267   -1.5326   18.9637 C.3     1  UNL1        0.0738
     30 C         -12.2448   -0.2350   18.2434 C.3     1  UNL1        0.0371
     31 C         -14.7272    1.3120   17.8271 C.ar    1  UNL1        0.0716
     32 C         -15.6595    1.0041   16.6931 C.ar    1  UNL1        0.0157
     33 C         -16.7665    1.9573   16.3525 C.ar    1  UNL1        0.0028
     34 C         -16.9411    3.2182   17.1458 C.ar    1  UNL1        0.0207
     35 C         -16.0088    3.5261   18.2798 C.ar    1  UNL1        0.0985
     36 N         -14.9018    2.5729   18.6204 N.ar    1  UNL1       -0.2472
     37 N         -12.0744    2.4285   16.6421 N.1     1  UNL1       -0.1955
     38 C         -12.8473    1.3936   17.4049 C.1     1  UNL1        0.0768
@<TRIPOS>BOND
     1    37    38    3
     2    38    25    1
     3    25    31    1
     4    31    32   ar
     5    32    33   ar
     6    33    34   ar
     7    34    35   ar
     8    35    36   ar
     9    25    26    1
    10    26    27    1
    11    27    28    1
    12    28    24    1
    13    24     1    1
    14     1     2   ar
    15     2     3   ar
    16     3    12    1
    17    12    13    2
    18    12    14   am
    19    16    14    1
    20    16    17    1
    21    17    18    1
    22    18    19    1
    23    19    20    1
    24    20    21    1
    25    21    22    1
    26     3     4   ar
    27     4     5    2
    28     4     6   ar
    29     6     7   ar
    30     7     8   ar
    31     8     9   ar
    32     9    10   ar
    33    10    11   ar
    34    28    29    1
    35    29    30    1
    36    30    25    1
    37    36    31   ar
    38    11     1   ar
    39    21    16    1
    40    11     6   ar
    41    14    15    1
    42    22    23    1
@<TRIPOS>MOLECULE
*****
 38 42 0 0 0
SMALL
GASTEIGER

@<TRIPOS>ATOM
      1 C           7.2931   -3.3937   25.0838 C.ar    1  UNL1        0.0104
      2 C           6.7885   -2.5835   26.2408 C.ar    1  UNL1        0.0078
      3 C           6.4995   -3.2494   27.5535 C.ar    1  UNL1        0.1095
      4 C           6.7152   -4.7256   27.7091 C.ar    1  UNL1        0.2691
      5 O           6.4262   -5.3916   29.0217 O.2     1  UNL1       -0.2665
      6 N           7.2199   -5.5360   26.5520 N.ar    1  UNL1       -0.2733
      7 C           7.4356   -7.0122   26.7076 C.ar    1  UNL1        0.0829
      8 C           7.9402   -7.8224   25.5506 C.ar    1  UNL1        0.0191
      9 C           8.2292   -7.1565   24.2380 C.ar    1  UNL1        0.0030
     10 C           8.0135   -5.6803   24.0823 C.ar    1  UNL1        0.0174
     11 C           7.5088   -4.8700   25.2394 C.ar    1  UNL1        0.0642
     12 C           5.9948   -2.4391   28.7105 C.2     1  UNL1        0.2505
     13 O           4.7879   -1.5642   28.5437 O.2     1  UNL1       -0.2700
     14 N           6.6971   -2.5036   30.0344 N.am    1  UNL1       -0.3000
     15 H           7.4893   -3.0778   30.1439 H       1  UNL1        0.1498
     16 C           6.1924   -1.6933   31.1913 C.3     1  UNL1        0.0986
     17 C           6.2110   -0.1950   31.1224 C.3     1  UNL1        0.0220
     18 C           5.7063    0.6154   32.2794 C.3     1  UNL1        0.0019
     19 C           5.1830   -0.0726   33.5053 C.3     1  UNL1        0.0026
     20 C           5.1644   -1.5708   33.5743 C.3     1  UNL1        0.0309
     21 C           5.6691   -2.3813   32.4173 C.3     1  UNL1        0.1283
     22 O           5.6505   -3.8795   32.4862 O.3     1  UNL1       -0.3828
     23 H           5.2847   -4.1594   33.3399 H       1  UNL1        0.2104
     24 C           7.5821   -2.7278   23.7711 C.3     1  UNL1        0.1006
     25 C           4.3957   -2.5279   20.5999 C.3     1  UNL1        0.1170
     26 C           4.8803   -1.2694   21.2565 C.3     1  UNL1        0.0371
     27 C           5.9424   -1.3360   22.3136 C.3     1  UNL1        0.0738
     28 N           6.5200   -2.6612   22.7141 N.3     1  UNL1       -0.2688
     29 C           6.0353   -3.9198   22.0575 C.3     1  UNL1        0.0738
     30 C           4.9731   -3.8531   21.0004 C.3     1  UNL1        0.0371
     31 C           3.5476   -1.5180   19.8852 C.ar    1  UNL1        0.0716
     32 C           2.2067   -1.1377   20.4397 C.ar    1  UNL1        0.0157
     33 C           1.3586   -0.1278   19.7250 C.ar    1  UNL1        0.0028
     34 C           1.8514    0.5018   18.4559 C.ar    1  UNL1        0.0207
     35 C           3.1923    0.1215   17.9014 C.ar    1  UNL1        0.0985
     36 N           4.0404   -0.8884   18.6161 N.ar    1  UNL1       -0.2472
     37 N           2.8373   -4.3437   18.7902 N.1     1  UNL1       -0.1955
     38 C           3.6165   -3.4357   19.6951 C.1     1  UNL1        0.0768
@<TRIPOS>BOND
     1    37    38    3
     2    38    25    1
     3    25    31    1
     4    31    32   ar
     5    32    33   ar
     6    33    34   ar
     7    34    35   ar
     8    35    36   ar
     9    25    26    1
    10    26    27    1
    11    27    28    1
    12    28    24    1
    13    24     1    1
    14     1     2   ar
    15     2     3   ar
    16     3    12    1
    17    12    13    2
    18    12    14   am
    19    16    14    1
    20    16    17    1
    21    17    18    1
    22    18    19    1
    23    19    20    1
    24    20    21    1
    25    21    22    1
    26     3     4   ar
    27     4     5    2
    28     4     6   ar
    29     6     7   ar
    30     7     8   ar
    31     8     9   ar
    32     9    10   ar
    33    10    11   ar
    34    28    29    1
    35    29    30    1
    36    30    25    1
    37    36    31   ar
    38    11     1   ar
    39    21    16    1
    40    11     6   ar
    41    14    15    1
    42    22    23    1
@<TRIPOS>MOLECULE
*****
 38 42 0 0 0
SMALL
GASTEIGER

@<TRIPOS>ATOM
      1 C           8.0371   -3.6402   27.1367 C.ar    1  UNL1        0.0104
      2 C           7.4305   -2.7818   28.2067 C.ar    1  UNL1        0.0078
      3 C           7.0600   -3.3827   29.5302 C.ar    1  UNL1        0.1095
      4 C           7.2963   -4.8421   29.7837 C.ar    1  UNL1        0.2691
      5 O           6.9259   -5.4431   31.1072 O.2     1  UNL1       -0.2665
      6 N           7.9030   -5.7006   28.7137 N.ar    1  UNL1       -0.2733
      7 C           8.1393   -7.1600   28.9672 C.ar    1  UNL1        0.0829
      8 C           8.7460   -8.0185   27.8972 C.ar    1  UNL1        0.0191
      9 C           9.1164   -7.4175   26.5737 C.ar    1  UNL1        0.0030
     10 C           8.8801   -5.9581   26.3202 C.ar    1  UNL1        0.0174
     11 C           8.2734   -5.0997   27.3902 C.ar    1  UNL1        0.0642
     12 C           6.4533   -2.5242   30.6003 C.2     1  UNL1        0.2505
     13 O           5.3384   -1.5796   30.2616 O.2     1  UNL1       -0.2700
     14 N           6.9615   -2.6103   32.0089 N.am    1  UNL1       -0.3000
     15 H           7.6932   -3.2302   32.2312 H       1  UNL1        0.1498
     16 C           6.3548   -1.7518   33.0788 C.3     1  UNL1        0.0986
     17 C           7.1629   -0.6570   33.7102 C.3     1  UNL1        0.0220
     18 C           6.5562    0.2015   34.7801 C.3     1  UNL1        0.0019
     19 C           5.1413   -0.0347   35.2188 C.3     1  UNL1        0.0026
     20 C           4.3332   -1.1294   34.5875 C.3     1  UNL1        0.0309
     21 C           4.9399   -1.9880   33.5175 C.3     1  UNL1        0.1283
     22 O           4.1318   -3.0826   32.8862 O.3     1  UNL1       -0.3828
     23 H           3.2460   -3.0995   33.2812 H       1  UNL1        0.2104
     24 C           8.4076   -3.0393   25.8132 C.3     1  UNL1        0.1006
     25 C           5.3376   -2.7483   22.5360 C.3     1  UNL1        0.1170
     26 C           6.4546   -3.7439   22.4310 C.3     1  UNL1        0.0371
     27 C           7.4779   -3.8409   23.5234 C.3     1  UNL1        0.0738
     28 N           7.3843   -2.9423   24.7209 N.3     1  UNL1       -0.2688
     29 C           6.2672   -1.9466   24.8258 C.3     1  UNL1        0.0738
     30 C           5.2439   -1.8497   23.7333 C.3     1  UNL1        0.0371
     31 C           5.0030   -3.3770   21.2159 C.ar    1  UNL1        0.0716
     32 C           5.5597   -2.8002   19.9479 C.ar    1  UNL1        0.0157
     33 C           5.2251   -3.4289   18.6278 C.ar    1  UNL1        0.0028
     34 C           4.3339   -4.6343   18.5755 C.ar    1  UNL1        0.0207
     35 C           3.7772   -5.2110   19.8434 C.ar    1  UNL1        0.0985
     36 N           4.1118   -4.5823   21.1636 N.ar    1  UNL1       -0.2472
     37 N           2.8711   -1.1937   21.8290 N.1     1  UNL1       -0.1955
     38 C           4.1044   -1.9710   22.1825 C.1     1  UNL1        0.0768
@<TRIPOS>BOND
     1    37    38    3
     2    38    25    1
     3    25    31    1
     4    31    32   ar
     5    32    33   ar
     6    33    34   ar
     7    34    35   ar
     8    35    36   ar
     9    25    26    1
    10    26    27    1
    11    27    28    1
    12    28    24    1
    13    24     1    1
    14     1     2   ar
    15     2     3   ar
    16     3    12    1
    17    12    13    2
    18    12    14   am
    19    16    14    1
    20    16    17    1
    21    17    18    1
    22    18    19    1
    23    19    20    1
    24    20    21    1
    25    21    22    1
    26     3     4   ar
    27     4     5    2
    28     4     6   ar
    29     6     7   ar
    30     7     8   ar
    31     8     9   ar
    32     9    10   ar
    33    10    11   ar
    34    28    29    1
    35    29    30    1
    36    30    25    1
    37    36    31   ar
    38    11     1   ar
    39    21    16    1
    40    11     6   ar
    41    14    15    1
    42    22    23    1
@<TRIPOS>MOLECULE
*****
 38 42 0 0 0
SMALL
GASTEIGER

@<TRIPOS>ATOM
      1 C          -1.2262    2.9416   21.2669 C.ar    1  UNL1        0.0104
      2 C          -0.4705    2.8329   22.5580 C.ar    1  UNL1        0.0078
      3 C          -1.1515    3.1552   23.8551 C.ar    1  UNL1        0.1095
      4 C          -2.5882    3.5862   23.8610 C.ar    1  UNL1        0.2691
      5 O          -3.2693    3.9084   25.1580 O.2     1  UNL1       -0.2665
      6 N          -3.3440    3.6949   22.5698 N.ar    1  UNL1       -0.2733
      7 C          -4.7807    4.1259   22.5757 C.ar    1  UNL1        0.0829
      8 C          -5.5364    4.2346   21.2846 C.ar    1  UNL1        0.0191
      9 C          -4.8553    3.9123   19.9875 C.ar    1  UNL1        0.0030
     10 C          -3.4186    3.4813   19.9816 C.ar    1  UNL1        0.0174
     11 C          -2.6630    3.3726   21.2728 C.ar    1  UNL1        0.0642
     12 C          -0.3958    3.0464   25.1463 C.2     1  UNL1        0.2505
     13 O           1.0608    3.4014   25.1949 O.2     1  UNL1       -0.2700
     14 N          -1.0966    2.5828   26.3888 N.am    1  UNL1       -0.3000
     15 H          -2.0526    2.3499   26.3569 H       1  UNL1        0.1498
     16 C          -0.3409    2.4741   27.6799 C.3     1  UNL1        0.0986
     17 C           0.1611    3.7124   28.3617 C.3     1  UNL1        0.0220
     18 C           0.9168    3.6037   29.6528 C.3     1  UNL1        0.0019
     19 C           1.1707    2.2568   30.2621 C.3     1  UNL1        0.0026
     20 C           0.6688    1.0186   29.5804 C.3     1  UNL1        0.0309
     21 C          -0.0870    1.1272   28.2892 C.3     1  UNL1        0.1283
     22 O          -0.5889   -0.1110   27.6075 O.3     1  UNL1       -0.3828
     23 H          -0.3417   -0.8903   28.1295 H       1  UNL1        0.2104
     24 C          -0.5451    2.6193   19.9699 C.3     1  UNL1        0.1006
     25 C           3.1321    0.0256   19.9430 C.3     1  UNL1        0.1170
     26 C           1.7785   -0.5941   20.1268 C.3     1  UNL1        0.0371
     27 C           0.5528    0.2704   20.1358 C.3     1  UNL1        0.0738
     28 N           0.6806    1.7548   19.9609 N.3     1  UNL1       -0.2688
     29 C           2.0342    2.3745   19.7771 C.3     1  UNL1        0.0738
     30 C           3.2599    1.5099   19.7682 C.3     1  UNL1        0.0371
     31 C           3.5213   -1.4175   20.0693 C.ar    1  UNL1        0.0716
     32 C           3.8968   -1.9786   21.4088 C.ar    1  UNL1        0.0157
     33 C           4.2860   -3.4217   21.5351 C.ar    1  UNL1        0.0028
     34 C           4.2997   -4.3037   20.3219 C.ar    1  UNL1        0.0207
     35 C           3.9242   -3.7426   18.9824 C.ar    1  UNL1        0.0985
     36 N           3.5351   -2.2995   18.8561 N.ar    1  UNL1       -0.2472
     37 N           6.1096    0.2627   19.6630 N.1     1  UNL1       -0.1955
     38 C           4.6208    0.1442   19.8031 C.1     1  UNL1        0.0768
@<TRIPOS>BOND
     1    37    38    3
     2    38    25    1
     3    25    31    1
     4    31    32   ar
     5    32    33   ar
     6    33    34   ar
     7    34    35   ar
     8    35    36   ar
     9    25    26    1
    10    26    27    1
    11    27    28    1
    12    28    24    1
    13    24     1    1
    14     1     2   ar
    15     2     3   ar
    16     3    12    1
    17    12    13    2
    18    12    14   am
    19    16    14    1
    20    16    17    1
    21    17    18    1
    22    18    19    1
    23    19    20    1
    24    20    21    1
    25    21    22    1
    26     3     4   ar
    27     4     5    2
    28     4     6   ar
    29     6     7   ar
    30     7     8   ar
    31     8     9   ar
    32     9    10   ar
    33    10    11   ar
    34    28    29    1
    35    29    30    1
    36    30    25    1
    37    36    31   ar
    38    11     1   ar
    39    21    16    1
    40    11     6   ar
    41    14    15    1
    42    22    23    1
@<TRIPOS>MOLECULE
*****
 38 42 0 0 0
SMALL
GASTEIGER

@<TRIPOS>ATOM
      1 C           1.6741    1.9092   24.5624 C.ar    1  UNL1        0.0104
      2 C           0.9014    2.5388   23.4414 C.ar    1  UNL1        0.0078
      3 C          -0.5245    2.9533   23.6535 C.ar    1  UNL1        0.1095
      4 C          -1.1778    2.7382   24.9865 C.ar    1  UNL1        0.2691
      5 O          -2.6037    3.1527   25.1986 O.2     1  UNL1       -0.2665
      6 N          -0.4051    2.1086   26.1076 N.ar    1  UNL1       -0.2733
      7 C          -1.0583    1.8935   27.4406 C.ar    1  UNL1        0.0829
      8 C          -0.2856    1.2639   28.5615 C.ar    1  UNL1        0.0191
      9 C           1.1403    0.8494   28.3494 C.ar    1  UNL1        0.0030
     10 C           1.7935    1.0645   27.0164 C.ar    1  UNL1        0.0174
     11 C           1.0208    1.6941   25.8955 C.ar    1  UNL1        0.0642
     12 C          -1.2972    3.5829   22.5325 C.2     1  UNL1        0.2505
     13 O          -1.6581    5.0375   22.5947 O.2     1  UNL1       -0.2700
     14 N          -1.7090    2.7579   21.3494 N.am    1  UNL1       -0.3000
     15 H          -1.4721    1.8032   21.3086 H       1  UNL1        0.1498
     16 C          -2.4816    3.3876   20.2284 C.3     1  UNL1        0.0986
     17 C          -1.7628    4.1657   19.1664 C.3     1  UNL1        0.0220
     18 C          -2.5354    4.7954   18.0455 C.3     1  UNL1        0.0019
     19 C          -4.0269    4.6469   17.9865 C.3     1  UNL1        0.0026
     20 C          -4.7457    3.8688   19.0484 C.3     1  UNL1        0.0309
     21 C          -3.9731    3.2391   20.1695 C.3     1  UNL1        0.1283
     22 O          -4.6919    2.4610   21.2314 O.3     1  UNL1       -0.3828
     23 H          -5.6438    2.4627   21.0450 H       1  UNL1        0.2104
     24 C           3.1000    1.4947   24.3503 C.3     1  UNL1        0.1006
     25 C           4.2637   -0.7354   20.6190 C.3     1  UNL1        0.1170
     26 C           3.8022   -1.4899   21.8305 C.3     1  UNL1        0.0371
     27 C           3.4143   -0.7465   23.0743 C.3     1  UNL1        0.0738
     28 N           3.4879    0.7514   23.1065 N.3     1  UNL1       -0.2688
     29 C           3.9493    1.5059   21.8950 C.3     1  UNL1        0.0738
     30 C           4.3372    0.7625   20.6512 C.3     1  UNL1        0.0371
     31 C           4.3623   -2.1407   20.1039 C.ar    1  UNL1        0.0716
     32 C           3.1610   -2.8030   19.4969 C.ar    1  UNL1        0.0157
     33 C           3.2596   -4.2083   18.9818 C.ar    1  UNL1        0.0028
     34 C           4.5594   -4.9513   19.0737 C.ar    1  UNL1        0.0207
     35 C           5.7607   -4.2890   19.6807 C.ar    1  UNL1        0.0985
     36 N           5.6620   -2.8837   20.1958 N.ar    1  UNL1       -0.2472
     37 N           5.2551   -0.2024   17.8381 N.1     1  UNL1       -0.1955
     38 C           4.7593   -0.4689   19.2286 C.1     1  UNL1        0.0768
@<TRIPOS>BOND
     1    37    38    3
     2    38    25    1
     3    25    31    1
     4    31    32   ar
     5    32    33   ar
     6    33    34   ar
     7    34    35   ar
     8    35    36   ar
     9    25    26    1
    10    26    27    1
    11    27    28    1
    12    28    24    1
    13    24     1    1
    14     1     2   ar
    15     2     3   ar
    16     3    12    1
    17    12    13    2
    18    12    14   am
    19    16    14    1
    20    16    17    1
    21    17    18    1
    22    18    19    1
    23    19    20    1
    24    20    21    1
    25    21    22    1
    26     3     4   ar
    27     4     5    2
    28     4     6   ar
    29     6     7   ar
    30     7     8   ar
    31     8     9   ar
    32     9    10   ar
    33    10    11   ar
    34    28    29    1
    35    29    30    1
    36    30    25    1
    37    36    31   ar
    38    11     1   ar
    39    21    16    1
    40    11     6   ar
    41    14    15    1
    42    22    23    1
@<TRIPOS>MOLECULE
*****
 38 42 0 0 0
SMALL
GASTEIGER

@<TRIPOS>ATOM
      1 C           6.7443   -2.6759   27.4851 C.ar    1  UNL1        0.0104
      2 C           6.3937   -2.2319   26.0959 C.ar    1  UNL1        0.0078
      3 C           6.4547   -3.2081   24.9587 C.ar    1  UNL1        0.1095
      4 C           6.8663   -4.6284   25.2107 C.ar    1  UNL1        0.2691
      5 O           6.9273   -5.6046   24.0734 O.2     1  UNL1       -0.2665
      6 N           7.2169   -5.0724   26.5999 N.ar    1  UNL1       -0.2733
      7 C           7.6285   -6.4926   26.8519 C.ar    1  UNL1        0.0829
      8 C           7.9791   -6.9366   28.2411 C.ar    1  UNL1        0.0191
      9 C           7.9181   -5.9604   29.3783 C.ar    1  UNL1        0.0030
     10 C           7.5065   -4.5402   29.1263 C.ar    1  UNL1        0.0174
     11 C           7.1559   -4.0962   27.7371 C.ar    1  UNL1        0.0642
     12 C           6.1041   -2.7641   23.5694 C.2     1  UNL1        0.2505
     13 O           6.8575   -1.6354   22.9303 O.2     1  UNL1       -0.2700
     14 N           5.0001   -3.4487   22.8194 N.am    1  UNL1       -0.3000
     15 H           4.5056   -4.1894   23.2389 H       1  UNL1        0.1498
     16 C           4.6495   -3.0046   21.4302 C.3     1  UNL1        0.0986
     17 C           3.5740   -1.9805   21.2192 C.3     1  UNL1        0.0220
     18 C           3.2234   -1.5364   19.8300 C.3     1  UNL1        0.0019
     19 C           3.9484   -2.1164   18.6518 C.3     1  UNL1        0.0026
     20 C           5.0239   -3.1404   18.8628 C.3     1  UNL1        0.0309
     21 C           5.3745   -3.5845   20.2521 C.3     1  UNL1        0.1283
     22 O           6.4500   -4.6086   20.4631 O.3     1  UNL1       -0.3828
     23 H           6.8136   -4.8771   19.6048 H       1  UNL1        0.2104
     24 C           6.6833   -1.6997   28.6223 C.3     1  UNL1        0.1006
     25 C           2.7651    0.2097   29.7409 C.3     1  UNL1        0.1170
     26 C           2.9562   -0.3606   28.3668 C.3     1  UNL1        0.0371
     27 C           4.2623   -0.9970   27.9939 C.3     1  UNL1        0.0738
     28 N           5.3773   -1.0632   28.9952 N.3     1  UNL1       -0.2688
     29 C           5.1861   -0.4930   30.3693 C.3     1  UNL1        0.0738
     30 C           3.8799    0.1435   30.7422 C.3     1  UNL1        0.0371
     31 C           1.4217    0.5102   29.1450 C.ar    1  UNL1        0.0716
     32 C           1.2477    1.7014   28.2501 C.ar    1  UNL1        0.0157
     33 C          -0.0956    2.0019   27.6541 C.ar    1  UNL1        0.0028
     34 C          -1.2649    1.1112   27.9530 C.ar    1  UNL1        0.0207
     35 C          -1.0909   -0.0800   28.8479 C.ar    1  UNL1        0.0985
     36 N           0.2524   -0.3805   29.4439 N.ar    1  UNL1       -0.2472
     37 N           1.4496    1.5590   32.0753 N.1     1  UNL1       -0.1955
     38 C           2.1074    0.8843   30.9081 C.1     1  UNL1        0.0768
@<TRIPOS>BOND
     1    37    38    3
     2    38    25    1
     3    25    31    1
     4    31    32   ar
     5    32    33   ar
     6    33    34   ar
     7    34    35   ar
     8    35    36   ar
     9    25    26    1
    10    26    27    1
    11    27    28    1
    12    28    24    1
    13    24     1    1
    14     1     2   ar
    15     2     3   ar
    16     3    12    1
    17    12    13    2
    18    12    14   am
    19    16    14    1
    20    16    17    1
    21    17    18    1
    22    18    19    1
    23    19    20    1
    24    20    21    1
    25    21    22    1
    26     3     4   ar
    27     4     5    2
    28     4     6   ar
    29     6     7   ar
    30     7     8   ar
    31     8     9   ar
    32     9    10   ar
    33    10    11   ar
    34    28    29    1
    35    29    30    1
    36    30    25    1
    37    36    31   ar
    38    11     1   ar
    39    21    16    1
    40    11     6   ar
    41    14    15    1
    42    22    23    1
@<TRIPOS>MOLECULE
*****
 38 42 0 0 0
SMALL
GASTEIGER

@<TRIPOS>ATOM
      1 C           6.1007   -2.0212   27.1750 C.ar    1  UNL1        0.0104
      2 C           6.0811   -2.1285   25.6790 C.ar    1  UNL1        0.0078
      3 C           6.4200   -3.4307   25.0160 C.ar    1  UNL1        0.1095
      4 C           6.7784   -4.6255   25.8491 C.ar    1  UNL1        0.2691
      5 O           7.1173   -5.9276   25.1861 O.2     1  UNL1       -0.2665
      6 N           6.7980   -4.5181   27.3451 N.ar    1  UNL1       -0.2733
      7 C           7.1565   -5.7129   28.1781 C.ar    1  UNL1        0.0829
      8 C           7.1761   -5.6055   29.6741 C.ar    1  UNL1        0.0191
      9 C           6.8372   -4.3034   30.3371 C.ar    1  UNL1        0.0030
     10 C           6.4787   -3.1086   29.5041 C.ar    1  UNL1        0.0174
     11 C           6.4591   -3.2160   28.0081 C.ar    1  UNL1        0.0642
     12 C           6.4004   -3.5380   23.5200 C.2     1  UNL1        0.2505
     13 O           7.6281   -3.9864   22.7841 O.2     1  UNL1       -0.2700
     14 N           5.1530   -3.1970   22.7599 N.am    1  UNL1       -0.3000
     15 H           4.3472   -2.9027   23.2428 H       1  UNL1        0.1498
     16 C           5.1335   -3.3043   21.2639 C.3     1  UNL1        0.0986
     17 C           4.2598   -4.3249   20.5965 C.3     1  UNL1        0.0220
     18 C           4.2403   -4.4322   19.1005 C.3     1  UNL1        0.0019
     19 C           5.0943   -3.5191   18.2718 C.3     1  UNL1        0.0026
     20 C           5.9679   -2.4986   18.9391 C.3     1  UNL1        0.0309
     21 C           5.9875   -2.3912   20.4352 C.3     1  UNL1        0.1283
     22 O           6.8612   -1.3707   21.1025 O.3     1  UNL1       -0.3828
     23 H           7.3432   -0.8671   20.4280 H       1  UNL1        0.2104
     24 C           5.7618   -0.7190   27.8380 C.3     1  UNL1        0.1006
     25 C           1.4810    0.6523   28.0473 C.3     1  UNL1        0.1170
     26 C           2.4231    1.2821   27.0645 C.3     1  UNL1        0.0371
     27 C           3.8500    0.8251   26.9948 C.3     1  UNL1        0.0738
     28 N           4.3349   -0.2619   27.9078 N.3     1  UNL1       -0.2688
     29 C           3.3928   -0.8917   28.8905 C.3     1  UNL1        0.0738
     30 C           1.9658   -0.4346   28.9602 C.3     1  UNL1        0.0371
     31 C           0.5576    1.6396   27.3972 C.ar    1  UNL1        0.0716
     32 C          -0.0959    1.3063   26.0887 C.ar    1  UNL1        0.0157
     33 C          -1.0193    2.2936   25.4386 C.ar    1  UNL1        0.0028
     34 C          -1.2892    3.6141   26.0969 C.ar    1  UNL1        0.0207
     35 C          -0.6357    3.9474   27.4053 C.ar    1  UNL1        0.0985
     36 N           0.2877    2.9601   28.0554 N.ar    1  UNL1       -0.2472
     37 N          -1.0447    0.0784   29.5612 N.1     1  UNL1       -0.1955
     38 C           0.2182    0.3654   28.8042 C.1     1  UNL1        0.0768
@<TRIPOS>BOND
     1    37    38    3
     2    38    25    1
     3    25    31    1
     4    31    32   ar
     5    32    33   ar
     6    33    34   ar
     7    34    35   ar
     8    35    36   ar
     9    25    26    1
    10    26    27    1
    11    27    28    1
    12    28    24    1
    13    24     1    1
    14     1     2   ar
    15     2     3   ar
    16     3    12    1
    17    12    13    2
    18    12    14   am
    19    16    14    1
    20    16    17    1
    21    17    18    1
    22    18    19    1
    23    19    20    1
    24    20    21    1
    25    21    22    1
    26     3     4   ar
    27     4     5    2
    28     4     6   ar
    29     6     7   ar
    30     7     8   ar
    31     8     9   ar
    32     9    10   ar
    33    10    11   ar
    34    28    29    1
    35    29    30    1
    36    30    25    1
    37    36    31   ar
    38    11     1   ar
    39    21    16    1
    40    11     6   ar
    41    14    15    1
    42    22    23    1
@<TRIPOS>MOLECULE
*****
 38 42 0 0 0
SMALL
GASTEIGER

@<TRIPOS>ATOM
      1 C           2.3290    0.8898   22.7195 C.ar    1  UNL1        0.0104
      2 C           3.1649   -0.2661   23.1833 C.ar    1  UNL1        0.0078
      3 C           3.5605   -1.3416   22.2154 C.ar    1  UNL1        0.1095
      4 C           3.1202   -1.2612   20.7838 C.ar    1  UNL1        0.2691
      5 O           3.5158   -2.3367   19.8159 O.2     1  UNL1       -0.2665
      6 N           2.2842   -0.1052   20.3199 N.ar    1  UNL1       -0.2733
      7 C           1.8439   -0.0248   18.8883 C.ar    1  UNL1        0.0829
      8 C           1.0080    1.1311   18.4246 C.ar    1  UNL1        0.0191
      9 C           0.6124    2.2066   19.3925 C.ar    1  UNL1        0.0030
     10 C           1.0528    2.1262   20.8241 C.ar    1  UNL1        0.0174
     11 C           1.8887    0.9703   21.2878 C.ar    1  UNL1        0.0642
     12 C           4.3964   -2.4975   22.6792 C.2     1  UNL1        0.2505
     13 O           3.9692   -3.9025   22.3733 O.2     1  UNL1       -0.2700
     14 N           5.6596   -2.2485   23.4489 N.am    1  UNL1       -0.3000
     15 H           5.9400   -1.3264   23.6497 H       1  UNL1        0.1498
     16 C           6.4954   -3.4044   23.9127 C.3     1  UNL1        0.0986
     17 C           7.3244   -4.1737   22.9271 C.3     1  UNL1        0.0220
     18 C           8.1602   -5.3296   23.3909 C.3     1  UNL1        0.0019
     19 C           8.1672   -5.7163   24.8402 C.3     1  UNL1        0.0026
     20 C           7.3384   -4.9471   25.8257 C.3     1  UNL1        0.0309
     21 C           6.5025   -3.7911   25.3619 C.3     1  UNL1        0.1283
     22 O           5.6736   -3.0219   26.3474 O.3     1  UNL1       -0.3828
     23 H           5.7916   -3.3991   27.2333 H       1  UNL1        0.2104
     24 C           1.9334    1.9654   23.6874 C.3     1  UNL1        0.1006
     25 C           0.8683    0.8965   27.9268 C.3     1  UNL1        0.1170
     26 C           2.2834    1.2481   27.5749 C.3     1  UNL1        0.0371
     27 C           2.6385    1.6043   26.1618 C.3     1  UNL1        0.0738
     28 N           1.5784    1.6091   25.1005 N.3     1  UNL1       -0.2688
     29 C           0.1633    1.2575   25.4524 C.3     1  UNL1        0.0738
     30 C          -0.1918    0.9012   26.8656 C.3     1  UNL1        0.0371
     31 C           1.5149    0.7523   29.2726 C.ar    1  UNL1        0.0716
     32 C           2.2295   -0.5175   29.6291 C.ar    1  UNL1        0.0157
     33 C           2.8761   -0.6617   30.9749 C.ar    1  UNL1        0.0028
     34 C           2.8081    0.4638   31.9641 C.ar    1  UNL1        0.0207
     35 C           2.0935    1.7336   31.6076 C.ar    1  UNL1        0.0985
     36 N           1.4469    1.8778   30.2618 N.ar    1  UNL1       -0.2472
     37 N          -1.5129    0.0933   29.5654 N.1     1  UNL1       -0.1955
     38 C          -0.3223    0.4949   28.7461 C.1     1  UNL1        0.0768
@<TRIPOS>BOND
     1    37    38    3
     2    38    25    1
     3    25    31    1
     4    31    32   ar
     5    32    33   ar
     6    33    34   ar
     7    34    35   ar
     8    35    36   ar
     9    25    26    1
    10    26    27    1
    11    27    28    1
    12    28    24    1
    13    24     1    1
    14     1     2   ar
    15     2     3   ar
    16     3    12    1
    17    12    13    2
    18    12    14   am
    19    16    14    1
    20    16    17    1
    21    17    18    1
    22    18    19    1
    23    19    20    1
    24    20    21    1
    25    21    22    1
    26     3     4   ar
    27     4     5    2
    28     4     6   ar
    29     6     7   ar
    30     7     8   ar
    31     8     9   ar
    32     9    10   ar
    33    10    11   ar
    34    28    29    1
    35    29    30    1
    36    30    25    1
    37    36    31   ar
    38    11     1   ar
    39    21    16    1
    40    11     6   ar
    41    14    15    1
    42    22    23    1
@<TRIPOS>MOLECULE
*****
 38 42 0 0 0
SMALL
GASTEIGER

@<TRIPOS>ATOM
      1 C           0.8208    2.8378   22.8813 C.ar    1  UNL1        0.0104
      2 C           1.6675    1.6164   22.6779 C.ar    1  UNL1        0.0078
      3 C           1.6027    0.8663   21.3806 C.ar    1  UNL1        0.1095
      4 C           0.6912    1.3376   20.2865 C.ar    1  UNL1        0.2691
      5 O           0.6263    0.5875   18.9891 O.2     1  UNL1       -0.2665
      6 N          -0.1556    2.5590   20.4898 N.ar    1  UNL1       -0.2733
      7 C          -1.0671    3.0303   19.3957 C.ar    1  UNL1        0.0829
      8 C          -1.9138    4.2516   19.5990 C.ar    1  UNL1        0.0191
      9 C          -1.8490    5.0017   20.8964 C.ar    1  UNL1        0.0030
     10 C          -0.9375    4.5305   21.9905 C.ar    1  UNL1        0.0174
     11 C          -0.0908    3.3091   21.7872 C.ar    1  UNL1        0.0642
     12 C           2.4494   -0.3551   21.1773 C.2     1  UNL1        0.2505
     13 O           2.7876   -1.2358   22.3435 O.2     1  UNL1       -0.2700
     14 N           2.9579   -0.6957   19.8079 N.am    1  UNL1       -0.3000
     15 H           2.7359   -0.1177   19.0425 H       1  UNL1        0.1498
     16 C           3.8046   -1.9171   19.6047 C.3     1  UNL1        0.0986
     17 C           3.1573   -3.2383   19.3120 C.3     1  UNL1        0.0220
     18 C           4.0040   -4.4596   19.1088 C.3     1  UNL1        0.0019
     19 C           5.4980   -4.3599   19.1982 C.3     1  UNL1        0.0026
     20 C           6.1453   -3.0388   19.4909 C.3     1  UNL1        0.0309
     21 C           5.2986   -1.8173   19.6941 C.3     1  UNL1        0.1283
     22 O           5.9459   -0.4963   19.9867 O.3     1  UNL1       -0.3828
     23 H           6.9094   -0.6063   20.0098 H       1  UNL1        0.2104
     24 C           0.8856    3.5879   24.1786 C.3     1  UNL1        0.1006
     25 C           0.4168    1.3873   28.0758 C.3     1  UNL1        0.1170
     26 C           1.7232    2.0418   27.7364 C.3     1  UNL1        0.0371
     27 C           1.8794    2.7753   26.4374 C.3     1  UNL1        0.0738
     28 N           0.7293    2.8543   25.4777 N.3     1  UNL1       -0.2688
     29 C          -0.5770    2.1999   25.8170 C.3     1  UNL1        0.0738
     30 C          -0.7332    1.4664   27.1161 C.3     1  UNL1        0.0371
     31 C           1.2088    1.0390   29.3011 C.ar    1  UNL1        0.0716
     32 C           1.2415    1.9829   30.4664 C.ar    1  UNL1        0.0157
     33 C           2.0334    1.6346   31.6918 C.ar    1  UNL1        0.0028
     34 C           2.7926    0.3423   31.7518 C.ar    1  UNL1        0.0207
     35 C           2.7599   -0.6016   30.5865 C.ar    1  UNL1        0.0985
     36 N           1.9679   -0.2533   29.3612 N.ar    1  UNL1       -0.2472
     37 N          -1.6459   -0.1636   29.6055 N.1     1  UNL1       -0.1955
     38 C          -0.6145    0.6119   28.8406 C.1     1  UNL1        0.0768
@<TRIPOS>BOND
     1    37    38    3
     2    38    25    1
     3    25    31    1
     4    31    32   ar
     5    32    33   ar
     6    33    34   ar
     7    34    35   ar
     8    35    36   ar
     9    25    26    1
    10    26    27    1
    11    27    28    1
    12    28    24    1
    13    24     1    1
    14     1     2   ar
    15     2     3   ar
    16     3    12    1
    17    12    13    2
    18    12    14   am
    19    16    14    1
    20    16    17    1
    21    17    18    1
    22    18    19    1
    23    19    20    1
    24    20    21    1
    25    21    22    1
    26     3     4   ar
    27     4     5    2
    28     4     6   ar
    29     6     7   ar
    30     7     8   ar
    31     8     9   ar
    32     9    10   ar
    33    10    11   ar
    34    28    29    1
    35    29    30    1
    36    30    25    1
    37    36    31   ar
    38    11     1   ar
    39    21    16    1
    40    11     6   ar
    41    14    15    1
    42    22    23    1
