@<TRIPOS>MOLECULE
*****
 32 34 0 0 0
SMALL
GASTEIGER

@<TRIPOS>ATOM
      1 C          -6.2026  -17.3418   23.5269 C.ar    1  UNL1        0.1789
      2 C          -6.0667  -18.5730   22.6810 C.ar    1  UNL1        0.0406
      3 C          -4.7483  -18.9061   22.0477 C.ar    1  UNL1        0.0034
      4 C          -3.5659  -18.0081   22.2604 C.ar    1  UNL1        0.0039
      5 C          -3.7017  -16.7769   23.1064 C.ar    1  UNL1        0.0401
      6 C          -5.0200  -16.4437   23.7396 C.ar    1  UNL1        0.1730
      7 C          -2.2475  -18.3412   21.6272 C.2     1  UNL1        0.0113
      8 C          -2.0037  -18.0111   20.1844 C.2     1  UNL1        0.0873
      9 S          -2.9782  -17.3516   19.2540 S.3     1  UNL1       -0.0254
     10 C          -2.3194  -17.2155   17.9133 C.2     1  UNL1        0.2832
     11 O          -2.9343  -16.6103   16.6863 O.2     1  UNL1       -0.2622
     12 N          -0.9379  -17.7907   18.0151 N.am    1  UNL1       -0.2425
     13 C          -0.7428  -18.2824   19.4187 C.2     1  UNL1        0.2583
     14 O           0.4959  -18.9316   19.9613 O.2     1  UNL1       -0.2692
     15 H          -0.2754  -17.8374   17.2883 H       1  UNL1        0.1587
     16 O          -5.1559  -15.2125   24.5856 O.3     1  UNL1       -0.4684
     17 C          -5.3943  -15.3389   26.0611 C.3     1  UNL1        0.2526
     18 O          -7.5209  -17.0086   24.1601 O.3     1  UNL1       -0.4505
     19 C         -11.2490  -16.8497   21.6450 C.ar    1  UNL1        0.0758
     20 C         -10.1692  -15.8268   21.4510 C.ar    1  UNL1        0.0096
     21 C          -8.9265  -15.8797   22.2893 C.ar    1  UNL1        0.0377
     22 C          -8.7636  -16.9556   23.3217 C.ar    1  UNL1        0.1493
     23 C          -9.8434  -17.9785   23.5157 C.ar    1  UNL1        0.1061
     24 C         -11.0860  -17.9256   22.6773 C.ar    1  UNL1        0.0134
     25 C          -9.6805  -19.0545   24.5482 C.3     1  UNL1        0.4214
     26 F          -9.5176  -20.1304   25.5806 F       1  UNL1       -0.1657
     27 F          -9.3629  -20.0442   23.4667 F       1  UNL1       -0.1657
     28 F          -9.9980  -18.0648   25.6296 F       1  UNL1       -0.1657
     29 C         -12.4917  -16.7967   20.8066 C.2     1  UNL1        0.3413
     30 O         -13.6417  -17.7101   21.1116 O.2     1  UNL1       -0.2449
     31 C         -11.3539  -15.4690   18.8850 C.3     1  UNL1        0.2560
     32 O         -12.5843  -15.8304   19.6631 O.3     1  UNL1       -0.4413
@<TRIPOS>BOND
     1    31    32    1
     2    32    29    1
     3    29    30    2
     4    29    19    1
     5    19    20   ar
     6    20    21   ar
     7    21    22   ar
     8    22    18    1
     9    18     1    1
    10     1     2   ar
    11     2     3   ar
    12     3     4   ar
    13     4     7    1
    14     7     8    2
    15     8     9    1
    16     9    10    1
    17    10    11    2
    18    10    12   am
    19    12    13   am
    20    13    14    2
    21     4     5   ar
    22     5     6   ar
    23     6    16    1
    24    16    17    1
    25    22    23   ar
    26    23    25    1
    27    25    26    1
    28    25    27    1
    29    25    28    1
    30    23    24   ar
    31    24    19   ar
    32     6     1   ar
    33    13     8    1
    34    12    15    1
@<TRIPOS>MOLECULE
*****
 32 34 0 0 0
SMALL
GASTEIGER

@<TRIPOS>ATOM
      1 C          -5.9937  -18.5853   22.9283 C.ar    1  UNL1        0.1789
      2 C          -5.1647  -17.4291   23.4038 C.ar    1  UNL1        0.0406
      3 C          -3.7130  -17.3455   23.0354 C.ar    1  UNL1        0.0034
      4 C          -3.0904  -18.4179   22.1915 C.ar    1  UNL1        0.0039
      5 C          -3.9194  -19.5740   21.7160 C.ar    1  UNL1        0.0401
      6 C          -5.3710  -19.6577   22.0844 C.ar    1  UNL1        0.1730
      7 C          -1.6387  -18.3343   21.8230 C.2     1  UNL1        0.0113
      8 C          -1.2398  -18.0746   20.4005 C.2     1  UNL1        0.0873
      9 S          -2.1751  -17.8789   19.2442 S.3     1  UNL1       -0.0254
     10 C          -1.3488  -17.6484   18.0136 C.2     1  UNL1        0.2832
     11 O          -1.8759  -17.4071   16.6302 O.2     1  UNL1       -0.2622
     12 N           0.0971  -17.7018   18.4094 N.am    1  UNL1       -0.2425
     13 C           0.1644  -17.9652   19.8846 C.2     1  UNL1        0.2583
     14 O           1.4163  -18.0961   20.7005 O.2     1  UNL1       -0.2692
     15 H           0.8667  -17.5845   17.8068 H       1  UNL1        0.1587
     16 O          -6.2001  -20.8139   21.6089 O.3     1  UNL1       -0.4684
     17 C          -6.1880  -21.1995   20.1594 C.3     1  UNL1        0.2526
     18 O          -7.4453  -18.6689   23.2968 O.3     1  UNL1       -0.4505
     19 C         -10.5387  -16.6479   20.7284 C.ar    1  UNL1        0.0758
     20 C         -10.0514  -18.0217   20.3746 C.ar    1  UNL1        0.0096
     21 C          -9.0203  -18.6954   21.2307 C.ar    1  UNL1        0.0377
     22 C          -8.4764  -17.9953   22.4406 C.ar    1  UNL1        0.1493
     23 C          -8.9637  -16.6215   22.7945 C.ar    1  UNL1        0.1061
     24 C          -9.9948  -15.9478   21.9383 C.ar    1  UNL1        0.0134
     25 C          -8.4198  -15.9213   24.0045 C.3     1  UNL1        0.4214
     26 F          -7.8760  -15.2211   25.2144 F       1  UNL1       -0.1657
     27 F          -9.3106  -16.7483   24.8834 F       1  UNL1       -0.1657
     28 F          -7.5291  -15.0943   23.1255 F       1  UNL1       -0.1657
     29 C         -11.5698  -15.9742   19.8723 C.2     1  UNL1        0.3413
     30 O         -11.1420  -15.0978   18.7326 O.2     1  UNL1       -0.2449
     31 C         -13.4564  -17.0262   21.3159 C.3     1  UNL1        0.2560
     32 O         -13.0287  -16.1769   20.1558 O.3     1  UNL1       -0.4413
@<TRIPOS>BOND
     1    31    32    1
     2    32    29    1
     3    29    30    2
     4    29    19    1
     5    19    20   ar
     6    20    21   ar
     7    21    22   ar
     8    22    18    1
     9    18     1    1
    10     1     2   ar
    11     2     3   ar
    12     3     4   ar
    13     4     7    1
    14     7     8    2
    15     8     9    1
    16     9    10    1
    17    10    11    2
    18    10    12   am
    19    12    13   am
    20    13    14    2
    21     4     5   ar
    22     5     6   ar
    23     6    16    1
    24    16    17    1
    25    22    23   ar
    26    23    25    1
    27    25    26    1
    28    25    27    1
    29    25    28    1
    30    23    24   ar
    31    24    19   ar
    32     6     1   ar
    33    13     8    1
    34    12    15    1
@<TRIPOS>MOLECULE
*****
 32 34 0 0 0
SMALL
GASTEIGER

@<TRIPOS>ATOM
      1 C          -5.8955  -16.7322   23.5495 C.ar    1  UNL1        0.1789
      2 C          -4.6688  -15.8712   23.6119 C.ar    1  UNL1        0.0406
      3 C          -3.3931  -16.3358   22.9740 C.ar    1  UNL1        0.0034
      4 C          -3.3441  -17.6614   22.2738 C.ar    1  UNL1        0.0039
      5 C          -4.5708  -18.5224   22.2114 C.ar    1  UNL1        0.0401
      6 C          -5.8464  -18.0579   22.8492 C.ar    1  UNL1        0.1730
      7 C          -2.0684  -18.1260   21.6359 C.2     1  UNL1        0.0113
      8 C          -1.8344  -17.8955   20.1723 C.2     1  UNL1        0.0873
      9 S          -2.7793  -17.2183   19.2243 S.3     1  UNL1       -0.0254
     10 C          -2.1433  -17.2060   17.8658 C.2     1  UNL1        0.2832
     11 O          -2.7404  -16.6259   16.6180 O.2     1  UNL1       -0.2622
     12 N          -0.8054  -17.8755   17.9742 N.am    1  UNL1       -0.2425
     13 C          -0.6145  -18.3017   19.3997 C.2     1  UNL1        0.2583
     14 O           0.5856  -19.0097   19.9551 O.2     1  UNL1       -0.2692
     15 H          -0.1650  -18.0114   17.2389 H       1  UNL1        0.1587
     16 O          -7.0731  -18.9189   22.7868 O.3     1  UNL1       -0.4684
     17 C          -7.5954  -19.3853   21.4603 C.3     1  UNL1        0.2526
     18 O          -7.1711  -16.2677   24.1873 O.3     1  UNL1       -0.4505
     19 C         -11.0789  -16.7387   22.0062 C.ar    1  UNL1        0.0758
     20 C          -9.9225  -16.0591   21.3349 C.ar    1  UNL1        0.0096
     21 C          -8.6199  -15.9021   22.0619 C.ar    1  UNL1        0.0377
     22 C          -8.4737  -16.4247   23.4603 C.ar    1  UNL1        0.1493
     23 C          -9.6301  -17.1043   24.1316 C.ar    1  UNL1        0.1061
     24 C         -10.9327  -17.2613   23.4046 C.ar    1  UNL1        0.0134
     25 C          -9.4840  -17.6269   25.5301 C.3     1  UNL1        0.4214
     26 F          -9.3379  -18.1495   26.9285 F       1  UNL1       -0.1657
     27 F          -9.7658  -19.0164   25.0403 F       1  UNL1       -0.1657
     28 F          -9.2022  -16.2374   26.0198 F       1  UNL1       -0.1657
     29 C         -12.3815  -16.8958   21.2792 C.2     1  UNL1        0.3413
     30 O         -13.3097  -18.0183   21.6373 O.2     1  UNL1       -0.2449
     31 C         -11.8112  -15.6768   19.0569 C.3     1  UNL1        0.2560
     32 O         -12.7559  -15.9303   20.1941 O.3     1  UNL1       -0.4413
@<TRIPOS>BOND
     1    31    32    1
     2    32    29    1
     3    29    30    2
     4    29    19    1
     5    19    20   ar
     6    20    21   ar
     7    21    22   ar
     8    22    18    1
     9    18     1    1
    10     1     2   ar
    11     2     3   ar
    12     3     4   ar
    13     4     7    1
    14     7     8    2
    15     8     9    1
    16     9    10    1
    17    10    11    2
    18    10    12   am
    19    12    13   am
    20    13    14    2
    21     4     5   ar
    22     5     6   ar
    23     6    16    1
    24    16    17    1
    25    22    23   ar
    26    23    25    1
    27    25    26    1
    28    25    27    1
    29    25    28    1
    30    23    24   ar
    31    24    19   ar
    32     6     1   ar
    33    13     8    1
    34    12    15    1
@<TRIPOS>MOLECULE
*****
 32 34 0 0 0
SMALL
GASTEIGER

@<TRIPOS>ATOM
      1 C          -6.6835  -19.7301   22.2912 C.ar    1  UNL1        0.1789
      2 C          -5.9007  -20.7918   21.5770 C.ar    1  UNL1        0.0406
      3 C          -4.4464  -20.5779   21.2779 C.ar    1  UNL1        0.0034
      4 C          -3.7750  -19.3024   21.6929 C.ar    1  UNL1        0.0039
      5 C          -4.5578  -18.2408   22.4072 C.ar    1  UNL1        0.0401
      6 C          -6.0120  -18.4546   22.7063 C.ar    1  UNL1        0.1730
      7 C          -2.3207  -19.0886   21.3938 C.2     1  UNL1        0.0113
      8 C          -1.9061  -18.4673   20.0929 C.2     1  UNL1        0.0873
      9 S          -2.8272  -18.0118   19.0002 S.3     1  UNL1       -0.0254
     10 C          -1.9879  -17.4556   17.8883 C.2     1  UNL1        0.2832
     11 O          -2.4988  -16.8873   16.5975 O.2     1  UNL1       -0.2622
     12 N          -0.5481  -17.5672   18.2939 N.am    1  UNL1       -0.2425
     13 C          -0.4976  -18.1926   19.6564 C.2     1  UNL1        0.2583
     14 O           0.7437  -18.4907   20.4442 O.2     1  UNL1       -0.2692
     15 H           0.2275  -17.2805   17.7597 H       1  UNL1        0.1587
     16 O          -6.7948  -17.3929   23.4205 O.3     1  UNL1       -0.4684
     17 C          -6.1355  -16.0984   23.7940 C.3     1  UNL1        0.2526
     18 O          -8.1377  -19.9439   22.5904 O.3     1  UNL1       -0.4505
     19 C         -11.2363  -17.2686   20.7218 C.ar    1  UNL1        0.0758
     20 C         -10.3122  -18.0678   19.8515 C.ar    1  UNL1        0.0096
     21 C          -9.2794  -18.9595   20.4744 C.ar    1  UNL1        0.0377
     22 C          -9.1705  -19.0521   21.9675 C.ar    1  UNL1        0.1493
     23 C         -10.0946  -18.2530   22.8378 C.ar    1  UNL1        0.1061
     24 C         -11.1275  -17.3612   22.2150 C.ar    1  UNL1        0.0134
     25 C          -9.9858  -18.3456   24.3310 C.3     1  UNL1        0.4214
     26 F          -9.8770  -18.4382   25.8242 F       1  UNL1       -0.1657
     27 F          -9.4728  -16.9370   24.3811 F       1  UNL1       -0.1657
     28 F         -10.4988  -19.7542   24.2810 F       1  UNL1       -0.1657
     29 C         -12.2691  -16.3768   20.0990 C.2     1  UNL1        0.3413
     30 O         -13.6515  -16.3122   20.6776 O.2     1  UNL1       -0.2449
     31 C         -10.6250  -14.7932   18.8586 C.3     1  UNL1        0.2560
     32 O         -11.9196  -15.5497   18.8975 O.3     1  UNL1       -0.4413
@<TRIPOS>BOND
     1    31    32    1
     2    32    29    1
     3    29    30    2
     4    29    19    1
     5    19    20   ar
     6    20    21   ar
     7    21    22   ar
     8    22    18    1
     9    18     1    1
    10     1     2   ar
    11     2     3   ar
    12     3     4   ar
    13     4     7    1
    14     7     8    2
    15     8     9    1
    16     9    10    1
    17    10    11    2
    18    10    12   am
    19    12    13   am
    20    13    14    2
    21     4     5   ar
    22     5     6   ar
    23     6    16    1
    24    16    17    1
    25    22    23   ar
    26    23    25    1
    27    25    26    1
    28    25    27    1
    29    25    28    1
    30    23    24   ar
    31    24    19   ar
    32     6     1   ar
    33    13     8    1
    34    12    15    1
@<TRIPOS>MOLECULE
*****
 32 34 0 0 0
SMALL
GASTEIGER

@<TRIPOS>ATOM
      1 C           6.7583   -4.3531   21.8924 C.ar    1  UNL1        0.1789
      2 C           8.1778   -4.7508   22.1695 C.ar    1  UNL1        0.0406
      3 C           8.6952   -4.7518   23.5775 C.ar    1  UNL1        0.0034
      4 C           7.7930   -4.3551   24.7083 C.ar    1  UNL1        0.0039
      5 C           6.3735   -3.9573   24.4312 C.ar    1  UNL1        0.0401
      6 C           5.8561   -3.9564   23.0233 C.ar    1  UNL1        0.1730
      7 C           8.3104   -4.3560   26.1163 C.2     1  UNL1        0.0113
      8 C           8.3545   -5.6353   26.8982 C.2     1  UNL1        0.0873
      9 S           7.9177   -6.9840   26.4078 S.3     1  UNL1       -0.0254
     10 C           8.1363   -7.9728   27.5144 C.2     1  UNL1        0.2832
     11 O           7.8358   -9.4412   27.4567 O.2     1  UNL1       -0.2622
     12 N           8.7083   -7.2353   28.6887 N.am    1  UNL1       -0.2425
     13 C           8.8431   -5.7907   28.3079 C.2     1  UNL1        0.2583
     14 O           9.3734   -4.6940   29.1831 O.2     1  UNL1       -0.2692
     15 H           8.9523   -7.6301   29.5569 H       1  UNL1        0.1587
     16 O           4.4366   -3.5586   22.7462 O.3     1  UNL1       -0.4684
     17 C           4.0505   -2.1092   22.7447 C.3     1  UNL1        0.2526
     18 O           6.2409   -4.3521   20.4845 O.3     1  UNL1       -0.4505
     19 C           5.7881   -0.4687   18.2564 C.ar    1  UNL1        0.0758
     20 C           7.0552   -0.7611   19.0041 C.ar    1  UNL1        0.0096
     21 C           7.2061   -2.0556   19.7468 C.ar    1  UNL1        0.0377
     22 C           6.0900   -3.0577   19.7418 C.ar    1  UNL1        0.1493
     23 C           4.8229   -2.7653   18.9941 C.ar    1  UNL1        0.1061
     24 C           4.6720   -1.4708   18.2514 C.ar    1  UNL1        0.0134
     25 C           3.7067   -3.7674   18.9891 C.3     1  UNL1        0.4214
     26 F           2.5905   -4.7694   18.9841 F       1  UNL1       -0.1657
     27 F           4.5755   -4.7314   18.2369 F       1  UNL1       -0.1657
     28 F           2.8379   -2.8034   19.7413 F       1  UNL1       -0.1657
     29 C           5.6372    0.8257   17.5137 C.2     1  UNL1        0.3413
     30 O           4.7794    1.9189   18.0786 O.2     1  UNL1       -0.2449
     31 C           7.7008    1.6663   16.1777 C.3     1  UNL1        0.2560
     32 O           6.3441    1.0270   16.2062 O.3     1  UNL1       -0.4413
@<TRIPOS>BOND
     1    31    32    1
     2    32    29    1
     3    29    30    2
     4    29    19    1
     5    19    20   ar
     6    20    21   ar
     7    21    22   ar
     8    22    18    1
     9    18     1    1
    10     1     2   ar
    11     2     3   ar
    12     3     4   ar
    13     4     7    1
    14     7     8    2
    15     8     9    1
    16     9    10    1
    17    10    11    2
    18    10    12   am
    19    12    13   am
    20    13    14    2
    21     4     5   ar
    22     5     6   ar
    23     6    16    1
    24    16    17    1
    25    22    23   ar
    26    23    25    1
    27    25    26    1
    28    25    27    1
    29    25    28    1
    30    23    24   ar
    31    24    19   ar
    32     6     1   ar
    33    13     8    1
    34    12    15    1
@<TRIPOS>MOLECULE
*****
 32 34 0 0 0
SMALL
GASTEIGER

@<TRIPOS>ATOM
      1 C          -6.4576  -19.3442   22.7459 C.ar    1  UNL1        0.1789
      2 C          -7.4247  -20.4703   22.5296 C.ar    1  UNL1        0.0406
      3 C          -8.8852  -20.1803   22.3485 C.ar    1  UNL1        0.0034
      4 C          -9.3786  -18.7642   22.3836 C.ar    1  UNL1        0.0039
      5 C          -8.4116  -17.6381   22.5998 C.ar    1  UNL1        0.0401
      6 C          -6.9511  -17.9281   22.7810 C.ar    1  UNL1        0.1730
      7 C         -10.8392  -18.4742   22.2024 C.2     1  UNL1        0.0113
      8 C         -11.2804  -17.4321   21.2179 C.2     1  UNL1        0.0873
      9 S         -10.3814  -16.6038   20.3484 S.3     1  UNL1       -0.0254
     10 C         -11.2435  -15.6951   19.5230 C.2     1  UNL1        0.2832
     11 O         -10.7589  -14.6953   18.5153 O.2     1  UNL1       -0.2622
     12 N         -12.6752  -15.9618   19.8823 N.am    1  UNL1       -0.2425
     13 C         -12.6980  -17.0353   20.9298 C.2     1  UNL1        0.2583
     14 O         -13.9233  -17.6110   21.5757 O.2     1  UNL1       -0.2692
     15 H         -13.4618  -15.5114   19.4981 H       1  UNL1        0.1587
     16 O          -5.9840  -16.8021   22.9972 O.3     1  UNL1       -0.4684
     17 C          -6.2214  -15.8105   24.0973 C.3     1  UNL1        0.2526
     18 O          -4.9971  -19.6342   22.9270 O.3     1  UNL1       -0.4505
     19 C          -2.0095  -18.0952   19.9344 C.ar    1  UNL1        0.0758
     20 C          -1.8709  -17.7375   21.3845 C.ar    1  UNL1        0.0096
     21 C          -2.8668  -18.2505   22.3820 C.ar    1  UNL1        0.0377
     22 C          -4.0012  -19.1212   21.9295 C.ar    1  UNL1        0.1493
     23 C          -4.1398  -19.4789   20.4794 C.ar    1  UNL1        0.1061
     24 C          -3.1439  -18.9659   19.4819 C.ar    1  UNL1        0.0134
     25 C          -5.2743  -20.3497   20.0268 C.3     1  UNL1        0.4214
     26 F          -6.4088  -21.2203   19.5741 F       1  UNL1       -0.1657
     27 F          -4.4716  -21.5710   20.3641 F       1  UNL1       -0.1657
     28 F          -6.0771  -19.1283   19.6894 F       1  UNL1       -0.1657
     29 C          -1.0136  -17.5822   18.9369 C.2     1  UNL1        0.3413
     30 O          -1.2242  -17.8283   17.4723 O.2     1  UNL1       -0.2449
     31 C           1.1991  -17.4887   20.2952 C.3     1  UNL1        0.2560
     32 O           0.1928  -16.8231   19.4039 O.3     1  UNL1       -0.4413
@<TRIPOS>BOND
     1    31    32    1
     2    32    29    1
     3    29    30    2
     4    29    19    1
     5    19    20   ar
     6    20    21   ar
     7    21    22   ar
     8    22    18    1
     9    18     1    1
    10     1     2   ar
    11     2     3   ar
    12     3     4   ar
    13     4     7    1
    14     7     8    2
    15     8     9    1
    16     9    10    1
    17    10    11    2
    18    10    12   am
    19    12    13   am
    20    13    14    2
    21     4     5   ar
    22     5     6   ar
    23     6    16    1
    24    16    17    1
    25    22    23   ar
    26    23    25    1
    27    25    26    1
    28    25    27    1
    29    25    28    1
    30    23    24   ar
    31    24    19   ar
    32     6     1   ar
    33    13     8    1
    34    12    15    1
@<TRIPOS>MOLECULE
*****
 32 34 0 0 0
SMALL
GASTEIGER

@<TRIPOS>ATOM
      1 C          -6.5992  -20.0584   21.9918 C.ar    1  UNL1        0.1789
      2 C          -5.7138  -20.9961   21.2258 C.ar    1  UNL1        0.0406
      3 C          -4.2680  -20.6574   21.0137 C.ar    1  UNL1        0.0034
      4 C          -3.7076  -19.3810   21.5676 C.ar    1  UNL1        0.0039
      5 C          -4.5930  -18.4433   22.3336 C.ar    1  UNL1        0.0401
      6 C          -6.0387  -18.7820   22.5458 C.ar    1  UNL1        0.1730
      7 C          -2.2618  -19.0423   21.3555 C.2     1  UNL1        0.0113
      8 C          -1.8153  -18.4401   20.0562 C.2     1  UNL1        0.0873
      9 S          -2.6951  -18.1213   18.8838 S.3     1  UNL1       -0.0254
     10 C          -1.8342  -17.5351   17.8043 C.2     1  UNL1        0.2832
     11 O          -2.3029  -17.0734   16.4562 O.2     1  UNL1       -0.2622
     12 N          -0.4225  -17.4917   18.3094 N.am    1  UNL1       -0.2425
     13 C          -0.4109  -18.0510   19.7012 C.2     1  UNL1        0.2583
     14 O           0.7938  -18.1958   20.5831 O.2     1  UNL1       -0.2692
     15 H           0.3591  -17.1552   17.8144 H       1  UNL1        0.1587
     16 O          -6.9241  -17.8442   23.3118 O.3     1  UNL1       -0.4684
     17 C          -6.5125  -16.4151   23.5067 C.3     1  UNL1        0.2526
     18 O          -8.0450  -20.3970   22.2040 O.3     1  UNL1       -0.4505
     19 C         -11.2010  -17.2379   21.6474 C.ar    1  UNL1        0.0758
     20 C         -10.7280  -17.5908   23.0264 C.ar    1  UNL1        0.0096
     21 C          -9.6760  -18.6439   23.2120 C.ar    1  UNL1        0.0377
     22 C          -9.0970  -19.3440   22.0185 C.ar    1  UNL1        0.1493
     23 C          -9.5699  -18.9911   20.6395 C.ar    1  UNL1        0.1061
     24 C         -10.6219  -17.9380   20.4539 C.ar    1  UNL1        0.0134
     25 C          -8.9909  -19.6912   19.4459 C.3     1  UNL1        0.4214
     26 F          -8.4119  -20.3913   18.2523 F       1  UNL1       -0.1657
     27 F          -7.7355  -18.8812   19.5797 F       1  UNL1       -0.1657
     28 F         -10.2462  -20.5012   19.3120 F       1  UNL1       -0.1657
     29 C         -12.2530  -16.1849   21.4619 C.2     1  UNL1        0.3413
     30 O         -12.7882  -15.4420   22.6500 O.2     1  UNL1       -0.2449
     31 C         -11.8172  -15.4720   19.0019 C.3     1  UNL1        0.2560
     32 O         -12.7697  -15.8748   20.0883 O.3     1  UNL1       -0.4413
@<TRIPOS>BOND
     1    31    32    1
     2    32    29    1
     3    29    30    2
     4    29    19    1
     5    19    20   ar
     6    20    21   ar
     7    21    22   ar
     8    22    18    1
     9    18     1    1
    10     1     2   ar
    11     2     3   ar
    12     3     4   ar
    13     4     7    1
    14     7     8    2
    15     8     9    1
    16     9    10    1
    17    10    11    2
    18    10    12   am
    19    12    13   am
    20    13    14    2
    21     4     5   ar
    22     5     6   ar
    23     6    16    1
    24    16    17    1
    25    22    23   ar
    26    23    25    1
    27    25    26    1
    28    25    27    1
    29    25    28    1
    30    23    24   ar
    31    24    19   ar
    32     6     1   ar
    33    13     8    1
    34    12    15    1
@<TRIPOS>MOLECULE
*****
 32 34 0 0 0
SMALL
GASTEIGER

@<TRIPOS>ATOM
      1 C           6.8244   -3.6165   22.5007 C.ar    1  UNL1        0.1789
      2 C           5.8285   -3.6737   23.6209 C.ar    1  UNL1        0.0406
      3 C           6.2984   -3.8579   25.0335 C.ar    1  UNL1        0.0034
      4 C           7.7641   -3.9850   25.3258 C.ar    1  UNL1        0.0039
      5 C           8.7600   -3.9278   24.2056 C.ar    1  UNL1        0.0401
      6 C           8.2902   -3.7436   22.7930 C.ar    1  UNL1        0.1730
      7 C           8.2340   -4.1693   26.7384 C.2     1  UNL1        0.0113
      8 C           8.3197   -5.5465   27.3266 C.2     1  UNL1        0.0873
      9 S           7.9711   -6.8271   26.6276 S.3     1  UNL1       -0.0254
     10 C           8.2050   -7.9569   27.5862 C.2     1  UNL1        0.2832
     11 O           7.9845   -9.4133   27.3030 O.2     1  UNL1       -0.2622
     12 N           8.6981   -7.3746   28.8776 N.am    1  UNL1       -0.2425
     13 C           8.7690   -5.8849   28.7172 C.2     1  UNL1        0.2583
     14 O           9.2115   -4.9055   29.7636 O.2     1  UNL1       -0.2692
     15 H           8.9338   -7.8812   29.6882 H       1  UNL1        0.1587
     16 O           9.2861   -3.6864   21.6728 O.3     1  UNL1       -0.4684
     17 C           9.5091   -4.8897   20.8055 C.3     1  UNL1        0.2526
     18 O           6.3546   -3.4322   21.0882 O.3     1  UNL1       -0.4505
     19 C           2.6170   -1.0703   20.2501 C.ar    1  UNL1        0.0758
     20 C           3.5832   -0.5992   21.2962 C.ar    1  UNL1        0.0096
     21 C           4.8291   -1.3864   21.5756 C.ar    1  UNL1        0.0377
     22 C           5.1087   -2.6449   20.8088 C.ar    1  UNL1        0.1493
     23 C           4.1425   -3.1161   19.7627 C.ar    1  UNL1        0.1061
     24 C           2.8967   -2.3288   19.4833 C.ar    1  UNL1        0.0134
     25 C           4.4222   -4.3747   18.9959 C.3     1  UNL1        0.4214
     26 F           4.7018   -5.6332   18.2291 F       1  UNL1       -0.1657
     27 F           5.3206   -3.6105   18.0692 F       1  UNL1       -0.1657
     28 F           3.5238   -5.1389   19.9226 F       1  UNL1       -0.1657
     29 C           1.3712   -0.2831   19.9707 C.2     1  UNL1        0.3413
     30 O           0.1640   -0.4544   20.8443 O.2     1  UNL1       -0.2449
     31 C           2.6105    1.2218   18.2533 C.3     1  UNL1        0.2560
     32 O           1.3326    0.6756   18.8178 O.3     1  UNL1       -0.4413
@<TRIPOS>BOND
     1    31    32    1
     2    32    29    1
     3    29    30    2
     4    29    19    1
     5    19    20   ar
     6    20    21   ar
     7    21    22   ar
     8    22    18    1
     9    18     1    1
    10     1     2   ar
    11     2     3   ar
    12     3     4   ar
    13     4     7    1
    14     7     8    2
    15     8     9    1
    16     9    10    1
    17    10    11    2
    18    10    12   am
    19    12    13   am
    20    13    14    2
    21     4     5   ar
    22     5     6   ar
    23     6    16    1
    24    16    17    1
    25    22    23   ar
    26    23    25    1
    27    25    26    1
    28    25    27    1
    29    25    28    1
    30    23    24   ar
    31    24    19   ar
    32     6     1   ar
    33    13     8    1
    34    12    15    1
@<TRIPOS>MOLECULE
*****
 32 34 0 0 0
SMALL
GASTEIGER

@<TRIPOS>ATOM
      1 C          -6.3546  -18.9384   22.5443 C.ar    1  UNL1        0.1789
      2 C          -7.3459  -19.9649   22.0822 C.ar    1  UNL1        0.0406
      3 C          -8.7346  -19.5471   21.6987 C.ar    1  UNL1        0.0034
      4 C          -9.1319  -18.1029   21.7772 C.ar    1  UNL1        0.0039
      5 C          -8.1406  -17.0763   22.2393 C.ar    1  UNL1        0.0401
      6 C          -6.7520  -17.4941   22.6229 C.ar    1  UNL1        0.1730
      7 C         -10.5206  -17.6851   21.3937 C.2     1  UNL1        0.0113
      8 C         -11.6491  -17.8486   22.3682 C.2     1  UNL1        0.0873
      9 S         -11.5422  -18.4114   23.7546 S.3     1  UNL1       -0.0254
     10 C         -12.9097  -18.3886   24.3707 C.2     1  UNL1        0.2832
     11 O         -13.2631  -18.8600   25.7502 O.2     1  UNL1       -0.2622
     12 N         -13.8617  -17.8118   23.3652 N.am    1  UNL1       -0.2425
     13 C         -13.0825  -17.4781   22.1276 C.2     1  UNL1        0.2583
     14 O         -13.6392  -16.8790   20.8702 O.2     1  UNL1       -0.2692
     15 H         -14.8281  -17.6761   23.4948 H       1  UNL1        0.1587
     16 O          -5.7606  -16.4675   23.0850 O.3     1  UNL1       -0.4684
     17 C          -6.1344  -15.4974   24.1662 C.3     1  UNL1        0.2526
     18 O          -4.9659  -19.3561   22.9279 O.3     1  UNL1       -0.4505
     19 C          -1.4662  -18.1514   20.3685 C.ar    1  UNL1        0.0758
     20 C          -1.5512  -17.6836   21.7912 C.ar    1  UNL1        0.0096
     21 C          -2.7178  -18.0852   22.6443 C.ar    1  UNL1        0.0377
     22 C          -3.7994  -18.9545   22.0748 C.ar    1  UNL1        0.1493
     23 C          -3.7143  -19.4223   20.6522 C.ar    1  UNL1        0.1061
     24 C          -2.5477  -19.0208   19.7990 C.ar    1  UNL1        0.0134
     25 C          -4.7959  -20.2918   20.0826 C.3     1  UNL1        0.4214
     26 F          -5.8774  -21.1612   19.5131 F       1  UNL1       -0.1657
     27 F          -5.5493  -19.0698   19.6478 F       1  UNL1       -0.1657
     28 F          -4.0425  -21.5138   20.5174 F       1  UNL1       -0.1657
     29 C          -0.2996  -17.7498   19.5154 C.2     1  UNL1        0.3413
     30 O           0.9872  -17.3230   20.1572 O.2     1  UNL1       -0.2449
     31 C          -1.7143  -17.3937   17.3656 C.3     1  UNL1        0.2560
     32 O          -0.4198  -17.7750   18.0205 O.3     1  UNL1       -0.4413
@<TRIPOS>BOND
     1    31    32    1
     2    32    29    1
     3    29    30    2
     4    29    19    1
     5    19    20   ar
     6    20    21   ar
     7    21    22   ar
     8    22    18    1
     9    18     1    1
    10     1     2   ar
    11     2     3   ar
    12     3     4   ar
    13     4     7    1
    14     7     8    2
    15     8     9    1
    16     9    10    1
    17    10    11    2
    18    10    12   am
    19    12    13   am
    20    13    14    2
    21     4     5   ar
    22     5     6   ar
    23     6    16    1
    24    16    17    1
    25    22    23   ar
    26    23    25    1
    27    25    26    1
    28    25    27    1
    29    25    28    1
    30    23    24   ar
    31    24    19   ar
    32     6     1   ar
    33    13     8    1
    34    12    15    1
