@<TRIPOS>MOLECULE
*****
 28 31 0 0 0
SMALL
GASTEIGER

@<TRIPOS>ATOM
      1 C          -8.0747  -15.8673   23.1161 C.2     1  UNL1        0.2651
      2 O          -7.4000  -15.1247   22.0012 O.2     1  UNL1       -0.2684
      3 N          -7.3370  -16.1319   24.3952 N.am    1  UNL1       -0.2996
      4 H          -7.7798  -16.6193   25.1270 H       1  UNL1        0.1498
      5 C         -11.6387  -17.3803   23.3871 C.ar    1  UNL1        0.1239
      6 N         -10.2822  -17.1109   23.9678 N.ar    1  UNL1       -0.2260
      7 C          -9.4870  -16.3453   22.9522 C.ar    1  UNL1        0.1517
      8 C         -10.3520  -16.1417   21.7438 C.ar    1  UNL1        0.0872
      9 C         -10.1006  -15.4564   20.4334 C.ar    1  UNL1        0.0193
     10 C         -11.1790  -15.4108   19.3918 C.ar    1  UNL1        0.0031
     11 C         -12.5088  -16.0505   19.6606 C.ar    1  UNL1        0.0191
     12 C         -12.7603  -16.7358   20.9710 C.ar    1  UNL1        0.0811
     13 N         -11.6819  -16.7814   22.0126 N.ar    1  UNL1       -0.2921
     14 C         -14.1768  -17.8680   23.6523 C.3     1  UNL1        0.0079
     15 C         -12.7559  -18.1191   24.0624 C.3     1  UNL1        0.0573
     16 C         -12.4524  -19.1090   25.1477 C.3     1  UNL1        0.0079
     17 C          -5.9246  -15.6539   24.5591 C.3     1  UNL1        0.0898
     18 C          -4.8228  -16.2812   23.7576 C.3     1  UNL1        0.0224
     19 C          -3.6094  -16.1432   22.8868 C.3     1  UNL1        0.0191
     20 C          -2.4012  -16.3187   22.0152 C.3     1  UNL1        0.0722
     21 N          -2.1730  -17.7896   21.8300 N.3     1  UNL1       -0.2705
     22 C          -3.2401  -18.5232   22.5870 C.3     1  UNL1        0.0722
     23 C          -4.1278  -17.5056   23.2401 C.3     1  UNL1        0.0191
     24 C          -1.0711  -18.4168   21.0284 C.3     1  UNL1        0.1050
     25 C          -0.8987  -18.0590   19.5820 C.3     1  UNL1        0.1486
     26 C          -2.2420  -18.6517   19.2752 C.3     1  UNL1        0.0368
     27 C           0.4446  -17.4662   19.8889 C.3     1  UNL1        0.0368
     28 F          -0.7262  -17.7011   18.1356 F       1  UNL1       -0.2386
@<TRIPOS>BOND
     1    14    15    1
     2    15    16    1
     3    15     5    1
     4     5     6   ar
     5     6     7   ar
     6     7     1    1
     7     1     2    2
     8     1     3   am
     9     3    17    1
    10    18    17    1
    11    18    19    1
    12    19    20    1
    13    20    21    1
    14    21    24    1
    15    24    25    1
    16    25    26    1
    17    25    27    1
    18    25    28    1
    19    21    22    1
    20    23    22    1
    21     7     8   ar
    22     8     9   ar
    23     9    10   ar
    24    10    11   ar
    25    11    12   ar
    26    12    13   ar
    27    13     5   ar
    28    23    18    1
    29    13     8   ar
    30    23    19    1
    31     3     4    1
@<TRIPOS>MOLECULE
*****
 28 31 0 0 0
SMALL
GASTEIGER

@<TRIPOS>ATOM
      1 C          -6.2524  -19.7058   20.1518 C.2     1  UNL1        0.2651
      2 O          -6.6919  -20.7875   21.0933 O.2     1  UNL1       -0.2684
      3 N          -7.1888  -19.2096   19.0901 N.am    1  UNL1       -0.2996
      4 H          -6.9004  -18.4996   18.4721 H       1  UNL1        0.1498
      5 C          -2.6437  -18.3416   19.7262 C.ar    1  UNL1        0.1239
      6 N          -3.8802  -18.9746   19.1603 N.ar    1  UNL1       -0.2260
      7 C          -4.8767  -19.1200   20.2720 C.ar    1  UNL1        0.1517
      8 C          -4.2561  -18.5769   21.5249 C.ar    1  UNL1        0.0872
      9 C          -4.7694  -18.4582   22.9293 C.ar    1  UNL1        0.0193
     10 C          -3.9025  -17.8585   23.9964 C.ar    1  UNL1        0.0031
     11 C          -2.5224  -17.3774   23.6591 C.ar    1  UNL1        0.0191
     12 C          -2.0091  -17.4960   22.2547 C.ar    1  UNL1        0.0811
     13 N          -2.8760  -18.0958   21.1876 N.ar    1  UNL1       -0.2921
     14 C          -0.0631  -18.0487   19.6552 C.3     1  UNL1        0.0079
     15 C          -1.3942  -18.0122   18.9644 C.3     1  UNL1        0.0573
     16 C          -1.4756  -17.6464   17.5121 C.3     1  UNL1        0.0079
     17 C          -8.5644  -19.7954   18.9699 C.3     1  UNL1        0.0898
     18 C          -9.6581  -19.3354   19.8877 C.3     1  UNL1        0.0224
     19 C         -10.6951  -18.3198   20.2660 C.3     1  UNL1        0.0191
     20 C         -11.7908  -17.5009   20.8815 C.3     1  UNL1        0.0722
     21 N         -12.2883  -18.2292   22.0948 N.3     1  UNL1       -0.2705
     22 C         -11.5000  -19.4983   22.2292 C.3     1  UNL1        0.0722
     23 C         -10.5154  -19.5543   21.0990 C.3     1  UNL1        0.0191
     24 C         -13.3819  -17.7692   23.0125 C.3     1  UNL1        0.1050
     25 C         -13.4743  -18.3204   24.4045 C.3     1  UNL1        0.1486
     26 C         -11.9821  -18.2410   24.5350 C.3     1  UNL1        0.0368
     27 C         -14.9665  -18.3997   24.2741 C.3     1  UNL1        0.0368
     28 F         -13.5667  -18.8716   25.7965 F       1  UNL1       -0.2386
@<TRIPOS>BOND
     1    14    15    1
     2    15    16    1
     3    15     5    1
     4     5     6   ar
     5     6     7   ar
     6     7     1    1
     7     1     2    2
     8     1     3   am
     9     3    17    1
    10    18    17    1
    11    18    19    1
    12    19    20    1
    13    20    21    1
    14    21    24    1
    15    24    25    1
    16    25    26    1
    17    25    27    1
    18    25    28    1
    19    21    22    1
    20    23    22    1
    21     7     8   ar
    22     8     9   ar
    23     9    10   ar
    24    10    11   ar
    25    11    12   ar
    26    12    13   ar
    27    13     5   ar
    28    23    18    1
    29    13     8   ar
    30    23    19    1
    31     3     4    1
@<TRIPOS>MOLECULE
*****
 28 31 0 0 0
SMALL
GASTEIGER

@<TRIPOS>ATOM
      1 C          -7.6933  -16.9169   23.0537 C.2     1  UNL1        0.2651
      2 O          -6.8179  -18.0862   22.7128 O.2     1  UNL1       -0.2684
      3 N          -7.1975  -15.8573   23.9926 N.am    1  UNL1       -0.2996
      4 H          -7.7720  -15.0898   24.2164 H       1  UNL1        0.1498
      5 C         -10.8924  -16.2497   20.9595 C.ar    1  UNL1        0.1239
      6 N          -9.4138  -16.1140   21.1721 N.ar    1  UNL1       -0.2260
      7 C          -9.0646  -16.8071   22.4557 C.ar    1  UNL1        0.1517
      8 C         -10.3274  -17.3711   23.0364 C.ar    1  UNL1        0.0872
      9 C         -10.5946  -18.1539   24.2877 C.ar    1  UNL1        0.0193
     10 C         -11.9914  -18.5921   24.6143 C.ar    1  UNL1        0.0031
     11 C         -13.1211  -18.2476   23.6896 C.ar    1  UNL1        0.0191
     12 C         -12.8539  -17.4648   22.4383 C.ar    1  UNL1        0.0811
     13 N         -11.4571  -17.0266   22.1117 N.ar    1  UNL1       -0.2921
     14 C         -13.1636  -15.8393   19.7662 C.3     1  UNL1        0.0079
     15 C         -11.6699  -15.7041   19.7985 C.3     1  UNL1        0.0573
     16 C         -10.9540  -15.0235   18.6698 C.3     1  UNL1        0.0079
     17 C          -5.8262  -15.9672   24.5906 C.3     1  UNL1        0.0898
     18 C          -4.6957  -16.5240   23.7771 C.3     1  UNL1        0.0224
     19 C          -3.5187  -16.3112   22.8720 C.3     1  UNL1        0.0191
     20 C          -2.3211  -16.4113   21.9743 C.3     1  UNL1        0.0722
     21 N          -1.9770  -17.8632   21.8205 N.3     1  UNL1       -0.2705
     22 C          -2.9619  -18.6605   22.6232 C.3     1  UNL1        0.0722
     23 C          -3.9147  -17.7013   23.2730 C.3     1  UNL1        0.0191
     24 C          -0.8465  -18.4200   21.0070 C.3     1  UNL1        0.1050
     25 C          -0.7077  -18.0458   19.5610 C.3     1  UNL1        0.1486
     26 C          -2.0423  -18.6666   19.2723 C.3     1  UNL1        0.0368
     27 C           0.6269  -17.4251   19.8498 C.3     1  UNL1        0.0368
     28 F          -0.5689  -17.6717   18.1151 F       1  UNL1       -0.2386
@<TRIPOS>BOND
     1    14    15    1
     2    15    16    1
     3    15     5    1
     4     5     6   ar
     5     6     7   ar
     6     7     1    1
     7     1     2    2
     8     1     3   am
     9     3    17    1
    10    18    17    1
    11    18    19    1
    12    19    20    1
    13    20    21    1
    14    21    24    1
    15    24    25    1
    16    25    26    1
    17    25    27    1
    18    25    28    1
    19    21    22    1
    20    23    22    1
    21     7     8   ar
    22     8     9   ar
    23     9    10   ar
    24    10    11   ar
    25    11    12   ar
    26    12    13   ar
    27    13     5   ar
    28    23    18    1
    29    13     8   ar
    30    23    19    1
    31     3     4    1
@<TRIPOS>MOLECULE
*****
 28 31 0 0 0
SMALL
GASTEIGER

@<TRIPOS>ATOM
      1 C           5.6428   -1.8763   26.6602 C.2     1  UNL1        0.2651
      2 O           6.5488   -1.1165   25.7373 O.2     1  UNL1       -0.2684
      3 N           4.1553   -1.7170   26.5500 N.am    1  UNL1       -0.2996
      4 H           3.5606   -2.2156   27.1557 H       1  UNL1        0.1498
      5 C           7.0357   -3.6769   29.8039 C.ar    1  UNL1        0.1239
      6 N           6.4314   -2.4732   29.1435 N.ar    1  UNL1       -0.2260
      7 C           6.2242   -2.7955   27.6932 C.ar    1  UNL1        0.1517
      8 C           6.7003   -4.1982   27.4574 C.ar    1  UNL1        0.0872
      9 C           6.7420   -5.0498   26.2233 C.ar    1  UNL1        0.0193
     10 C           7.2851   -6.4462   26.2938 C.ar    1  UNL1        0.0031
     11 C           7.7867   -6.9910   27.5983 C.ar    1  UNL1        0.0191
     12 C           7.7450   -6.1393   28.8323 C.ar    1  UNL1        0.0811
     13 N           7.2018   -4.7430   28.7619 N.ar    1  UNL1       -0.2921
     14 C           6.3743   -3.5617   32.3138 C.3     1  UNL1        0.0079
     15 C           7.4083   -3.7939   31.2522 C.3     1  UNL1        0.0573
     16 C           8.8148   -4.1431   31.6389 C.3     1  UNL1        0.0079
     17 C           3.5740   -0.7978   25.5169 C.3     1  UNL1        0.0898
     18 C           3.6001   -1.1857   24.0682 C.3     1  UNL1        0.0224
     19 C           3.1109   -0.9944   22.6632 C.3     1  UNL1        0.0191
     20 C           2.8194   -1.0375   21.1924 C.3     1  UNL1        0.0722
     21 N           3.6628   -2.1186   20.5842 N.3     1  UNL1       -0.2705
     22 C           4.4755   -2.7437   21.6790 C.3     1  UNL1        0.0722
     23 C           4.1344   -2.0489   22.9639 C.3     1  UNL1        0.0191
     24 C           3.6889   -2.5064   19.1354 C.3     1  UNL1        0.1050
     25 C           4.3243   -3.7989   18.7164 C.3     1  UNL1        0.1486
     26 C           3.0893   -4.5412   19.1331 C.3     1  UNL1        0.0368
     27 C           5.5594   -3.0566   18.2997 C.3     1  UNL1        0.0368
     28 F           4.9598   -5.0914   18.2973 F       1  UNL1       -0.2386
@<TRIPOS>BOND
     1    14    15    1
     2    15    16    1
     3    15     5    1
     4     5     6   ar
     5     6     7   ar
     6     7     1    1
     7     1     2    2
     8     1     3   am
     9     3    17    1
    10    18    17    1
    11    18    19    1
    12    19    20    1
    13    20    21    1
    14    21    24    1
    15    24    25    1
    16    25    26    1
    17    25    27    1
    18    25    28    1
    19    21    22    1
    20    23    22    1
    21     7     8   ar
    22     8     9   ar
    23     9    10   ar
    24    10    11   ar
    25    11    12   ar
    26    12    13   ar
    27    13     5   ar
    28    23    18    1
    29    13     8   ar
    30    23    19    1
    31     3     4    1
@<TRIPOS>MOLECULE
*****
 28 31 0 0 0
SMALL
GASTEIGER

@<TRIPOS>ATOM
      1 C           6.7957   -4.1155   24.5153 C.2     1  UNL1        0.2651
      2 O           8.2881   -4.0581   24.3769 O.2     1  UNL1       -0.2684
      3 N           6.1791   -4.5856   25.7994 N.am    1  UNL1       -0.2996
      4 H           5.1995   -4.6233   25.8902 H       1  UNL1        0.1498
      5 C           4.8781   -3.6029   21.1799 C.ar    1  UNL1        0.1239
      6 N           5.9003   -4.3263   22.0055 N.ar    1  UNL1       -0.2260
      7 C           5.9198   -3.7027   23.3696 C.ar    1  UNL1        0.1517
      8 C           4.9096   -2.5940   23.3871 C.ar    1  UNL1        0.0872
      9 C           4.4929   -1.6327   24.4604 C.ar    1  UNL1        0.0193
     10 C           3.4323   -0.6097   24.1804 C.ar    1  UNL1        0.0031
     11 C           2.7884   -0.5479   22.8270 C.ar    1  UNL1        0.0191
     12 C           3.2052   -1.5093   21.7536 C.ar    1  UNL1        0.0811
     13 N           4.2658   -2.5323   22.0337 N.ar    1  UNL1       -0.2921
     14 C           5.0378   -3.0085   18.6557 C.3     1  UNL1        0.0079
     15 C           4.5293   -3.8982   19.7512 C.3     1  UNL1        0.0573
     16 C           3.6721   -5.0831   19.4179 C.3     1  UNL1        0.0079
     17 C           7.0550   -4.9984   26.9450 C.3     1  UNL1        0.0898
     18 C           6.8960   -4.3427   28.2847 C.3     1  UNL1        0.0224
     19 C           6.9744   -4.4095   29.7811 C.3     1  UNL1        0.0191
     20 C           6.9568   -4.1781   31.2631 C.3     1  UNL1        0.0722
     21 N           6.5136   -2.7659   31.5065 N.3     1  UNL1       -0.2705
     22 C           6.2574   -2.1244   30.1751 C.3     1  UNL1        0.0722
     23 C           6.5422   -3.1402   29.1087 C.3     1  UNL1        0.0191
     24 C           6.3546   -2.1103   32.8463 C.3     1  UNL1        0.1050
     25 C           5.1087   -1.3359   33.1591 C.3     1  UNL1        0.1486
     26 C           5.8670   -0.0515   33.0000 C.3     1  UNL1        0.0368
     27 C           4.3504   -2.6202   33.3183 C.3     1  UNL1        0.0368
     28 F           3.8628   -0.5614   33.4720 F       1  UNL1       -0.2386
@<TRIPOS>BOND
     1    14    15    1
     2    15    16    1
     3    15     5    1
     4     5     6   ar
     5     6     7   ar
     6     7     1    1
     7     1     2    2
     8     1     3   am
     9     3    17    1
    10    18    17    1
    11    18    19    1
    12    19    20    1
    13    20    21    1
    14    21    24    1
    15    24    25    1
    16    25    26    1
    17    25    27    1
    18    25    28    1
    19    21    22    1
    20    23    22    1
    21     7     8   ar
    22     8     9   ar
    23     9    10   ar
    24    10    11   ar
    25    11    12   ar
    26    12    13   ar
    27    13     5   ar
    28    23    18    1
    29    13     8   ar
    30    23    19    1
    31     3     4    1
@<TRIPOS>MOLECULE
*****
 28 31 0 0 0
SMALL
GASTEIGER

@<TRIPOS>ATOM
      1 C          -1.3820    3.2583   22.1928 C.2     1  UNL1        0.2651
      2 O          -0.8885    4.1859   23.2632 O.2     1  UNL1       -0.2684
      3 N          -0.5129    2.1318   21.7174 N.am    1  UNL1       -0.2996
      4 H          -0.8368    1.5229   21.0149 H       1  UNL1        0.1498
      5 C          -4.5599    3.6418   19.9976 C.ar    1  UNL1        0.1239
      6 N          -3.0902    3.3783   20.1403 N.ar    1  UNL1       -0.2260
      7 C          -2.7446    3.4569   21.5978 C.ar    1  UNL1        0.1517
      8 C          -4.0007    3.7690   22.3559 C.ar    1  UNL1        0.0872
      9 C          -4.2678    3.9639   23.8190 C.ar    1  UNL1        0.0193
     10 C          -5.6569    4.2731   24.2931 C.ar    1  UNL1        0.0031
     11 C          -6.7789    4.3874   23.3041 C.ar    1  UNL1        0.0191
     12 C          -6.5118    4.1925   21.8410 C.ar    1  UNL1        0.0811
     13 N          -5.1227    3.8833   21.3669 N.ar    1  UNL1       -0.2921
     14 C          -6.8063    3.3864   18.7174 C.3     1  UNL1        0.0079
     15 C          -5.3315    3.6606   18.7114 C.3     1  UNL1        0.0573
     16 C          -4.6285    3.9536   17.4192 C.3     1  UNL1        0.0079
     17 C           0.8496    1.9332   22.3124 C.3     1  UNL1        0.0898
     18 C           1.6708    0.7397   21.9239 C.3     1  UNL1        0.0224
     19 C           2.0252   -0.3250   20.9284 C.3     1  UNL1        0.0191
     20 C           2.5857   -1.4793   20.1516 C.3     1  UNL1        0.0722
     21 N           3.6458   -2.1308   20.9894 N.3     1  UNL1       -0.2705
     22 C           3.7404   -1.3791   22.2840 C.3     1  UNL1        0.0722
     23 C           2.7389   -0.2631   22.2463 C.3     1  UNL1        0.0191
     24 C           4.4670   -3.3243   20.6008 C.3     1  UNL1        0.1050
     25 C           5.1051   -3.3863   19.2448 C.3     1  UNL1        0.1486
     26 C           5.9919   -2.2328   19.6094 C.3     1  UNL1        0.0368
     27 C           4.2182   -4.5398   18.8802 C.3     1  UNL1        0.0368
     28 F           5.7432   -3.4483   17.8887 F       1  UNL1       -0.2386
@<TRIPOS>BOND
     1    14    15    1
     2    15    16    1
     3    15     5    1
     4     5     6   ar
     5     6     7   ar
     6     7     1    1
     7     1     2    2
     8     1     3   am
     9     3    17    1
    10    18    17    1
    11    18    19    1
    12    19    20    1
    13    20    21    1
    14    21    24    1
    15    24    25    1
    16    25    26    1
    17    25    27    1
    18    25    28    1
    19    21    22    1
    20    23    22    1
    21     7     8   ar
    22     8     9   ar
    23     9    10   ar
    24    10    11   ar
    25    11    12   ar
    26    12    13   ar
    27    13     5   ar
    28    23    18    1
    29    13     8   ar
    30    23    19    1
    31     3     4    1
@<TRIPOS>MOLECULE
*****
 28 31 0 0 0
SMALL
GASTEIGER

@<TRIPOS>ATOM
      1 C           0.5532    2.1378   22.6827 C.2     1  UNL1        0.2651
      2 O           1.9317    2.6610   22.4075 O.2     1  UNL1       -0.2684
      3 N          -0.3013    1.6447   21.5526 N.am    1  UNL1       -0.2996
      4 H          -1.2061    1.3013   21.7332 H       1  UNL1        0.1498
      5 C          -0.2278    1.5896   26.4449 C.ar    1  UNL1        0.1239
      6 N           0.6105    1.3269   25.2291 N.ar    1  UNL1       -0.2260
      7 C           0.0290    2.1075   24.0878 C.ar    1  UNL1        0.1517
      8 C          -1.1686    2.8525   24.5982 C.ar    1  UNL1        0.0872
      9 C          -2.1352    3.7811   23.9247 C.ar    1  UNL1        0.0193
     10 C          -3.2604    4.3895   24.7081 C.ar    1  UNL1        0.0031
     11 C          -3.4191    4.0693   26.1649 C.ar    1  UNL1        0.0191
     12 C          -2.4526    3.1408   26.8384 C.ar    1  UNL1        0.0811
     13 N          -1.3274    2.5324   26.0551 N.ar    1  UNL1       -0.2921
     14 C           1.1754    1.4464   28.6269 C.3     1  UNL1        0.0079
     15 C          -0.0056    1.0109   27.8109 C.3     1  UNL1        0.0573
     16 C          -0.9642   -0.0032   28.3609 C.3     1  UNL1        0.0079
     17 C           0.2228    1.6750   20.1475 C.3     1  UNL1        0.0898
     18 C           1.2605    0.6830   19.7126 C.3     1  UNL1        0.0224
     19 C           1.9902   -0.6104   19.9238 C.3     1  UNL1        0.0191
     20 C           2.8727   -1.8224   19.8735 C.3     1  UNL1        0.0722
     21 N           3.7559   -1.7029   18.6670 N.3     1  UNL1       -0.2705
     22 C           3.4193   -0.4171   17.9716 C.3     1  UNL1        0.0722
     23 C           2.3280    0.2580   18.7484 C.3     1  UNL1        0.0191
     24 C           4.7935   -2.6949   18.2322 C.3     1  UNL1        0.1050
     25 C           5.5451   -3.4919   19.2569 C.3     1  UNL1        0.1486
     26 C           4.6629   -4.6740   18.9846 C.3     1  UNL1        0.0368
     27 C           6.4273   -2.3097   19.5293 C.3     1  UNL1        0.0368
     28 F           6.2967   -4.2888   20.2816 F       1  UNL1       -0.2386
@<TRIPOS>BOND
     1    14    15    1
     2    15    16    1
     3    15     5    1
     4     5     6   ar
     5     6     7   ar
     6     7     1    1
     7     1     2    2
     8     1     3   am
     9     3    17    1
    10    18    17    1
    11    18    19    1
    12    19    20    1
    13    20    21    1
    14    21    24    1
    15    24    25    1
    16    25    26    1
    17    25    27    1
    18    25    28    1
    19    21    22    1
    20    23    22    1
    21     7     8   ar
    22     8     9   ar
    23     9    10   ar
    24    10    11   ar
    25    11    12   ar
    26    12    13   ar
    27    13     5   ar
    28    23    18    1
    29    13     8   ar
    30    23    19    1
    31     3     4    1
@<TRIPOS>MOLECULE
*****
 28 31 0 0 0
SMALL
GASTEIGER

@<TRIPOS>ATOM
      1 C          -7.3792  -17.0900   23.1202 C.2     1  UNL1        0.2651
      2 O          -6.2660  -17.8836   22.5032 O.2     1  UNL1       -0.2684
      3 N          -7.0744  -16.0561   24.1635 N.am    1  UNL1       -0.2996
      4 H          -7.8051  -15.5352   24.5685 H       1  UNL1        0.1498
      5 C         -11.2220  -17.2749   22.6067 C.ar    1  UNL1        0.1239
      6 N         -10.0235  -16.7840   23.3633 N.ar    1  UNL1       -0.2260
      7 C          -8.7972  -17.3301   22.6940 C.ar    1  UNL1        0.1517
      8 C          -9.2378  -18.1585   21.5237 C.ar    1  UNL1        0.0872
      9 C          -8.4680  -18.9394   20.5002 C.ar    1  UNL1        0.0193
     10 C          -9.1969  -19.6862   19.4227 C.ar    1  UNL1        0.0031
     11 C         -10.6955  -19.6521   19.3688 C.ar    1  UNL1        0.0191
     12 C         -11.4653  -18.8712   20.3922 C.ar    1  UNL1        0.0811
     13 N         -10.7365  -18.1244   21.4697 N.ar    1  UNL1       -0.2921
     14 C         -13.4691  -17.9483   23.7236 C.3     1  UNL1        0.0079
     15 C         -12.6546  -16.9699   22.9301 C.3     1  UNL1        0.0573
     16 C         -13.2728  -15.6866   22.4603 C.3     1  UNL1        0.0079
     17 C          -5.6564  -15.8160   24.5896 C.3     1  UNL1        0.0898
     18 C          -4.5247  -16.3689   23.7751 C.3     1  UNL1        0.0224
     19 C          -3.4060  -16.1628   22.7974 C.3     1  UNL1        0.0191
     20 C          -2.2440  -16.2654   21.8543 C.3     1  UNL1        0.0722
     21 N          -1.8030  -17.6986   21.8162 N.3     1  UNL1       -0.2705
     22 C          -2.6925  -18.4818   22.7356 C.3     1  UNL1        0.0722
     23 C          -3.6832  -17.5327   23.3420 C.3     1  UNL1        0.0191
     24 C          -0.6713  -18.2514   21.0016 C.3     1  UNL1        0.1050
     25 C          -0.5856  -17.9496   19.5348 C.3     1  UNL1        0.1486
     26 C           0.7354  -17.2728   19.7513 C.3     1  UNL1        0.0368
     27 C          -1.9066  -18.6264   19.3184 C.3     1  UNL1        0.0368
     28 F          -0.4999  -17.6478   18.0680 F       1  UNL1       -0.2386
@<TRIPOS>BOND
     1    14    15    1
     2    15    16    1
     3    15     5    1
     4     5     6   ar
     5     6     7   ar
     6     7     1    1
     7     1     2    2
     8     1     3   am
     9     3    17    1
    10    18    17    1
    11    18    19    1
    12    19    20    1
    13    20    21    1
    14    21    24    1
    15    24    25    1
    16    25    26    1
    17    25    27    1
    18    25    28    1
    19    21    22    1
    20    23    22    1
    21     7     8   ar
    22     8     9   ar
    23     9    10   ar
    24    10    11   ar
    25    11    12   ar
    26    12    13   ar
    27    13     5   ar
    28    23    18    1
    29    13     8   ar
    30    23    19    1
    31     3     4    1
@<TRIPOS>MOLECULE
*****
 28 31 0 0 0
SMALL
GASTEIGER

@<TRIPOS>ATOM
      1 C          -8.0361  -18.5996   22.2816 C.2     1  UNL1        0.2651
      2 O          -6.8688  -17.7471   22.6821 O.2     1  UNL1       -0.2684
      3 N          -7.8948  -20.0924   22.2385 N.am    1  UNL1       -0.2996
      4 H          -8.6609  -20.6520   21.9756 H       1  UNL1        0.1498
      5 C         -11.0458  -16.6776   20.7607 C.ar    1  UNL1        0.1239
      6 N          -9.6078  -17.1028   20.7214 N.ar    1  UNL1       -0.2260
      7 C          -9.3448  -17.9595   21.9242 C.ar    1  UNL1        0.1517
      8 C         -10.6201  -18.0639   22.7069 C.ar    1  UNL1        0.0872
      9 C         -10.9600  -18.7780   23.9815 C.ar    1  UNL1        0.0193
     10 C         -12.3511  -18.6998   24.5369 C.ar    1  UNL1        0.0031
     11 C         -13.4024  -17.9075   23.8179 C.ar    1  UNL1        0.0191
     12 C         -13.0625  -17.1934   22.5433 C.ar    1  UNL1        0.0811
     13 N         -11.6714  -17.2716   21.9878 N.ar    1  UNL1       -0.2921
     14 C         -13.2346  -15.7308   19.7298 C.3     1  UNL1        0.0079
     15 C         -11.7368  -15.8107   19.7503 C.3     1  UNL1        0.0573
     16 C         -10.9302  -15.0236   18.7605 C.3     1  UNL1        0.0079
     17 C          -6.5861  -20.7325   22.5959 C.3     1  UNL1        0.0898
     18 C          -5.3174  -20.2538   21.9548 C.3     1  UNL1        0.0224
     19 C          -3.9289  -19.6994   22.0772 C.3     1  UNL1        0.0191
     20 C          -2.5432  -19.1577   21.8862 C.3     1  UNL1        0.0722
     21 N          -2.2660  -19.1026   20.4131 N.3     1  UNL1       -0.2705
     22 C          -3.4804  -19.6101   19.6936 C.3     1  UNL1        0.0722
     23 C          -4.5081  -19.9790   20.7221 C.3     1  UNL1        0.0191
     24 C          -0.9972  -18.6239   19.7721 C.3     1  UNL1        0.1050
     25 C          -0.5308  -17.2153   19.9922 C.3     1  UNL1        0.1486
     26 C          -1.9210  -16.7147   19.7342 C.3     1  UNL1        0.0368
     27 C           0.8594  -17.7160   20.2502 C.3     1  UNL1        0.0368
     28 F          -0.0644  -15.8068   20.2123 F       1  UNL1       -0.2386
@<TRIPOS>BOND
     1    14    15    1
     2    15    16    1
     3    15     5    1
     4     5     6   ar
     5     6     7   ar
     6     7     1    1
     7     1     2    2
     8     1     3   am
     9     3    17    1
    10    18    17    1
    11    18    19    1
    12    19    20    1
    13    20    21    1
    14    21    24    1
    15    24    25    1
    16    25    26    1
    17    25    27    1
    18    25    28    1
    19    21    22    1
    20    23    22    1
    21     7     8   ar
    22     8     9   ar
    23     9    10   ar
    24    10    11   ar
    25    11    12   ar
    26    12    13   ar
    27    13     5   ar
    28    23    18    1
    29    13     8   ar
    30    23    19    1
    31     3     4    1
