@<TRIPOS>MOLECULE
*****
 22 24 0 0 0
SMALL
GASTEIGER

@<TRIPOS>ATOM
      1 C          -7.9253  -16.4352   23.9941 C.ar    1  UNL1        0.0846
      2 C          -6.7189  -16.8723   23.2173 C.ar    1  UNL1        0.0398
      3 C          -5.3442  -16.5366   23.7149 C.ar    1  UNL1        0.1021
      4 N          -5.1760  -15.7637   24.9894 N.ar    1  UNL1       -0.2224
      5 C          -6.3825  -15.3265   25.7663 C.ar    1  UNL1        0.1989
      6 N          -7.7570  -15.6623   25.2686 N.ar    1  UNL1       -0.2240
      7 C         -11.1398  -16.5853   21.6715 C.ar    1  UNL1        0.0693
      8 C         -12.0492  -17.4423   22.5012 C.ar    1  UNL1        0.0217
      9 C         -11.5840  -17.9636   23.8285 C.ar    1  UNL1        0.0584
     10 CL        -12.4935  -18.8207   24.6582 Cl      1  UNL1       -0.0822
     11 C         -10.2094  -17.6279   24.3262 C.ar    1  UNL1        0.0129
     12 C          -9.3000  -16.7709   23.4965 C.ar    1  UNL1        0.0193
     13 C          -9.7652  -16.2496   22.1692 C.ar    1  UNL1        0.0118
     14 N         -12.0702  -15.5426   19.0169 N.1     1  UNL1       -0.1908
     15 C         -11.6050  -16.0640   20.3442 C.1     1  UNL1        0.1004
     16 C          -4.1378  -16.9737   22.9381 C.ar    1  UNL1        0.0991
     17 C          -3.8499  -18.4349   22.7594 C.ar    1  UNL1        0.0230
     18 C          -2.6435  -18.8720   21.9826 C.ar    1  UNL1        0.0328
     19 C          -1.7250  -17.8479   21.3843 C.ar    1  UNL1        0.1592
     20 F          -0.5187  -18.2851   20.6075 F       1  UNL1       -0.2025
     21 C          -2.0130  -16.3867   21.5630 C.ar    1  UNL1        0.1284
     22 N          -3.2195  -15.9496   22.3399 N.ar    1  UNL1       -0.2400
@<TRIPOS>BOND
     1    14    15    3
     2    15     7    1
     3     7     8   ar
     4     8     9   ar
     5     9    10    1
     6     9    11   ar
     7    11    12   ar
     8    12     1    1
     9     1     2   ar
    10     2     3   ar
    11     3    16    1
    12    16    17   ar
    13    17    18   ar
    14    18    19   ar
    15    19    20    1
    16    19    21   ar
    17    21    22   ar
    18     3     4   ar
    19     4     5   ar
    20     5     6   ar
    21    12    13   ar
    22    13     7   ar
    23     6     1   ar
    24    22    16   ar
@<TRIPOS>MOLECULE
*****
 22 24 0 0 0
SMALL
GASTEIGER

@<TRIPOS>ATOM
      1 C          -8.6033  -16.3214   23.6577 C.ar    1  UNL1        0.0846
      2 C          -7.3340  -16.7961   23.0148 C.ar    1  UNL1        0.0398
      3 C          -6.0181  -16.5764   23.7006 C.ar    1  UNL1        0.1021
      4 N          -5.9717  -15.8819   25.0293 N.ar    1  UNL1       -0.2224
      5 C          -7.2411  -15.4072   25.6723 C.ar    1  UNL1        0.1989
      6 N          -8.5569  -15.6269   24.9865 N.ar    1  UNL1       -0.2240
      7 C         -12.3806  -17.3699   23.0390 C.ar    1  UNL1        0.0693
      8 C         -12.5509  -16.9805   21.6005 C.ar    1  UNL1        0.0217
      9 C         -11.4053  -16.3714   20.8477 C.ar    1  UNL1        0.0584
     10 CL        -11.5757  -15.9821   19.4091 Cl      1  UNL1       -0.0822
     11 C         -10.0895  -16.1517   21.5334 C.ar    1  UNL1        0.0129
     12 C          -9.9192  -16.5411   22.9719 C.ar    1  UNL1        0.0193
     13 C         -11.0648  -17.1502   23.7247 C.ar    1  UNL1        0.0118
     14 N         -14.6718  -18.5881   24.5446 N.1     1  UNL1       -0.1908
     15 C         -13.5262  -17.9790   23.7918 C.1     1  UNL1        0.1004
     16 C          -4.7488  -17.0511   23.0576 C.ar    1  UNL1        0.0991
     17 C          -4.5595  -18.5086   22.7579 C.ar    1  UNL1        0.0230
     18 C          -3.2902  -18.9833   22.1149 C.ar    1  UNL1        0.0328
     19 C          -2.2101  -18.0005   21.7717 C.ar    1  UNL1        0.1592
     20 F          -0.9408  -18.4752   21.1287 F       1  UNL1       -0.2025
     21 C          -2.3995  -16.5430   22.0714 C.ar    1  UNL1        0.1284
     22 N          -3.6689  -16.0683   22.7144 N.ar    1  UNL1       -0.2400
@<TRIPOS>BOND
     1    14    15    3
     2    15     7    1
     3     7     8   ar
     4     8     9   ar
     5     9    10    1
     6     9    11   ar
     7    11    12   ar
     8    12     1    1
     9     1     2   ar
    10     2     3   ar
    11     3    16    1
    12    16    17   ar
    13    17    18   ar
    14    18    19   ar
    15    19    20    1
    16    19    21   ar
    17    21    22   ar
    18     3     4   ar
    19     4     5   ar
    20     5     6   ar
    21    12    13   ar
    22    13     7   ar
    23     6     1   ar
    24    22    16   ar
@<TRIPOS>MOLECULE
*****
 22 24 0 0 0
SMALL
GASTEIGER

@<TRIPOS>ATOM
      1 C          -6.6714  -17.7719   22.6219 C.ar    1  UNL1        0.0846
      2 C          -8.1386  -18.0647   22.7289 C.ar    1  UNL1        0.0398
      3 C          -9.0273  -17.1610   23.5311 C.ar    1  UNL1        0.1021
      4 N          -8.4487  -15.9643   24.2263 N.ar    1  UNL1       -0.2224
      5 C          -6.9814  -15.6715   24.1193 C.ar    1  UNL1        0.1989
      6 N          -6.0928  -16.5752   23.3172 N.ar    1  UNL1       -0.2240
      7 C          -3.4383  -19.2531   20.8602 C.ar    1  UNL1        0.0693
      8 C          -4.0052  -20.4830   20.2154 C.ar    1  UNL1        0.0217
      9 C          -5.4608  -20.8093   20.3728 C.ar    1  UNL1        0.0584
     10 CL         -6.0277  -22.0393   19.7279 Cl      1  UNL1       -0.0822
     11 C          -6.3496  -19.9056   21.1749 C.ar    1  UNL1        0.0129
     12 C          -5.7826  -18.6756   21.8197 C.ar    1  UNL1        0.0193
     13 C          -4.3270  -18.3494   21.6624 C.ar    1  UNL1        0.0118
     14 N          -0.5271  -18.6006   20.5456 N.1     1  UNL1       -0.1908
     15 C          -1.9827  -18.9269   20.7029 C.1     1  UNL1        0.1004
     16 C         -10.4945  -17.4538   23.6380 C.ar    1  UNL1        0.0991
     17 C         -11.4740  -16.6979   22.7900 C.ar    1  UNL1        0.0230
     18 C         -12.9412  -16.9907   22.8970 C.ar    1  UNL1        0.0328
     19 C         -13.4290  -18.0396   23.8520 C.ar    1  UNL1        0.1592
     20 F         -14.8962  -18.3325   23.9589 F       1  UNL1       -0.2025
     21 C         -12.4495  -18.7956   24.7000 C.ar    1  UNL1        0.1284
     22 N         -10.9822  -18.5027   24.5930 N.ar    1  UNL1       -0.2400
@<TRIPOS>BOND
     1    14    15    3
     2    15     7    1
     3     7     8   ar
     4     8     9   ar
     5     9    10    1
     6     9    11   ar
     7    11    12   ar
     8    12     1    1
     9     1     2   ar
    10     2     3   ar
    11     3    16    1
    12    16    17   ar
    13    17    18   ar
    14    18    19   ar
    15    19    20    1
    16    19    21   ar
    17    21    22   ar
    18     3     4   ar
    19     4     5   ar
    20     5     6   ar
    21    12    13   ar
    22    13     7   ar
    23     6     1   ar
    24    22    16   ar
@<TRIPOS>MOLECULE
*****
 22 24 0 0 0
SMALL
GASTEIGER

@<TRIPOS>ATOM
      1 C          -6.6748  -18.9253   20.9723 C.ar    1  UNL1        0.0846
      2 C          -7.9129  -18.6259   21.7643 C.ar    1  UNL1        0.0398
      3 C          -9.2642  -18.9217   21.1840 C.ar    1  UNL1        0.1021
      4 N          -9.3773  -19.5168   19.8118 N.ar    1  UNL1       -0.2224
      5 C          -8.1390  -19.8162   19.0198 C.ar    1  UNL1        0.1989
      6 N          -6.7878  -19.5205   19.6000 N.ar    1  UNL1       -0.2240
      7 C          -2.7449  -18.4662   21.2806 C.ar    1  UNL1        0.0693
      8 C          -2.6210  -18.0382   22.7128 C.ar    1  UNL1        0.0217
      9 C          -3.8484  -17.9059   23.5649 C.ar    1  UNL1        0.0584
     10 CL         -3.7244  -17.4778   24.9973 Cl      1  UNL1       -0.0822
     11 C          -5.1996  -18.2016   22.9848 C.ar    1  UNL1        0.0129
     12 C          -5.3235  -18.6296   21.5525 C.ar    1  UNL1        0.0193
     13 C          -4.0961  -18.7619   20.7004 C.ar    1  UNL1        0.0118
     14 N          -0.2901  -18.7308   19.5764 N.1     1  UNL1       -0.1908
     15 C          -1.5175  -18.5985   20.4285 C.1     1  UNL1        0.1004
     16 C         -10.5024  -18.6223   21.9760 C.ar    1  UNL1        0.0991
     17 C         -11.7220  -18.0859   21.2870 C.ar    1  UNL1        0.0230
     18 C         -12.9602  -17.7865   22.0790 C.ar    1  UNL1        0.0328
     19 C         -12.9787  -18.0235   23.5601 C.ar    1  UNL1        0.1592
     20 F         -14.2169  -17.7241   24.3521 F       1  UNL1       -0.2025
     21 C         -11.7591  -18.5599   24.2491 C.ar    1  UNL1        0.1284
     22 N         -10.5209  -18.8593   23.4570 N.ar    1  UNL1       -0.2400
@<TRIPOS>BOND
     1    14    15    3
     2    15     7    1
     3     7     8   ar
     4     8     9   ar
     5     9    10    1
     6     9    11   ar
     7    11    12   ar
     8    12     1    1
     9     1     2   ar
    10     2     3   ar
    11     3    16    1
    12    16    17   ar
    13    17    18   ar
    14    18    19   ar
    15    19    20    1
    16    19    21   ar
    17    21    22   ar
    18     3     4   ar
    19     4     5   ar
    20     5     6   ar
    21    12    13   ar
    22    13     7   ar
    23     6     1   ar
    24    22    16   ar
@<TRIPOS>MOLECULE
*****
 22 24 0 0 0
SMALL
GASTEIGER

@<TRIPOS>ATOM
      1 C          -7.2799  -19.2791   20.3961 C.ar    1  UNL1        0.0846
      2 C          -8.4030  -18.8956   21.3133 C.ar    1  UNL1        0.0398
      3 C          -9.8228  -19.1761   20.9186 C.ar    1  UNL1        0.1021
      4 N         -10.1193  -19.8400   19.6067 N.ar    1  UNL1       -0.2224
      5 C          -8.9960  -20.2235   18.6894 C.ar    1  UNL1        0.1989
      6 N          -7.5764  -19.9430   19.0841 N.ar    1  UNL1       -0.2240
      7 C          -4.1085  -18.3951   22.6122 C.ar    1  UNL1        0.0693
      8 C          -3.0208  -18.4377   21.5802 C.ar    1  UNL1        0.0217
      9 C          -3.3527  -18.7608   20.1536 C.ar    1  UNL1        0.0584
     10 CL         -2.2649  -18.8034   19.1216 Cl      1  UNL1       -0.0822
     11 C          -4.7724  -19.0413   19.7588 C.ar    1  UNL1        0.0129
     12 C          -5.8601  -18.9986   20.7908 C.ar    1  UNL1        0.0193
     13 C          -5.5282  -18.6755   22.2175 C.ar    1  UNL1        0.0118
     14 N          -3.4446  -17.7488   25.4656 N.1     1  UNL1       -0.1908
     15 C          -3.7766  -18.0719   24.0389 C.1     1  UNL1        0.1004
     16 C         -10.9459  -18.7926   21.8359 C.ar    1  UNL1        0.0991
     17 C         -12.1758  -18.1362   21.2821 C.ar    1  UNL1        0.0230
     18 C         -13.2989  -17.7527   22.1993 C.ar    1  UNL1        0.0328
     19 C         -13.1923  -18.0256   23.6705 C.ar    1  UNL1        0.1592
     20 F         -14.3155  -17.6422   24.5877 F       1  UNL1       -0.2025
     21 C         -11.9625  -18.6820   24.2243 C.ar    1  UNL1        0.1284
     22 N         -10.8393  -19.0655   23.3070 N.ar    1  UNL1       -0.2400
@<TRIPOS>BOND
     1    14    15    3
     2    15     7    1
     3     7     8   ar
     4     8     9   ar
     5     9    10    1
     6     9    11   ar
     7    11    12   ar
     8    12     1    1
     9     1     2   ar
    10     2     3   ar
    11     3    16    1
    12    16    17   ar
    13    17    18   ar
    14    18    19   ar
    15    19    20    1
    16    19    21   ar
    17    21    22   ar
    18     3     4   ar
    19     4     5   ar
    20     5     6   ar
    21    12    13   ar
    22    13     7   ar
    23     6     1   ar
    24    22    16   ar
@<TRIPOS>MOLECULE
*****
 22 24 0 0 0
SMALL
GASTEIGER

@<TRIPOS>ATOM
      1 C          -7.1756  -19.5311   21.1872 C.ar    1  UNL1        0.0846
      2 C          -5.9037  -18.7404   21.1038 C.ar    1  UNL1        0.0398
      3 C          -4.6753  -19.3570   20.5029 C.ar    1  UNL1        0.1021
      4 N          -4.7190  -20.7643   19.9855 N.ar    1  UNL1       -0.2224
      5 C          -5.9910  -21.5549   20.0690 C.ar    1  UNL1        0.1989
      6 N          -7.2193  -20.9383   20.6698 N.ar    1  UNL1       -0.2240
      7 C         -10.6089  -17.5676   21.5154 C.ar    1  UNL1        0.0693
      8 C         -10.8607  -17.6813   22.9897 C.ar    1  UNL1        0.0217
      9 C          -9.8841  -18.4116   23.8632 C.ar    1  UNL1        0.0584
     10 CL        -10.1360  -18.5254   25.3376 Cl      1  UNL1       -0.0822
     11 C          -8.6558  -19.0282   23.2624 C.ar    1  UNL1        0.0129
     12 C          -8.4040  -18.9145   21.7881 C.ar    1  UNL1        0.0193
     13 C          -9.3806  -18.1842   20.9146 C.ar    1  UNL1        0.0118
     14 N         -12.5619  -16.1070   19.7683 N.1     1  UNL1       -0.1908
     15 C         -11.5854  -16.8373   20.6419 C.1     1  UNL1        0.1004
     16 C          -3.4034  -18.5664   20.4195 C.ar    1  UNL1        0.0991
     17 C          -2.4417  -18.8093   19.2943 C.ar    1  UNL1        0.0230
     18 C          -1.1697  -18.0187   19.2109 C.ar    1  UNL1        0.0328
     19 C          -0.8595  -16.9850   20.2527 C.ar    1  UNL1        0.1592
     20 F           0.4125  -16.1943   20.1693 F       1  UNL1       -0.2025
     21 C          -1.8212  -16.7420   21.3779 C.ar    1  UNL1        0.1284
     22 N          -3.0932  -17.5327   21.4613 N.ar    1  UNL1       -0.2400
@<TRIPOS>BOND
     1    14    15    3
     2    15     7    1
     3     7     8   ar
     4     8     9   ar
     5     9    10    1
     6     9    11   ar
     7    11    12   ar
     8    12     1    1
     9     1     2   ar
    10     2     3   ar
    11     3    16    1
    12    16    17   ar
    13    17    18   ar
    14    18    19   ar
    15    19    20    1
    16    19    21   ar
    17    21    22   ar
    18     3     4   ar
    19     4     5   ar
    20     5     6   ar
    21    12    13   ar
    22    13     7   ar
    23     6     1   ar
    24    22    16   ar
@<TRIPOS>MOLECULE
*****
 22 24 0 0 0
SMALL
GASTEIGER

@<TRIPOS>ATOM
      1 C          -7.1014  -19.1657   21.4380 C.ar    1  UNL1        0.0846
      2 C          -5.7745  -18.4823   21.2896 C.ar    1  UNL1        0.0398
      3 C          -4.6405  -19.1865   20.6053 C.ar    1  UNL1        0.1021
      4 N          -4.8336  -20.5741   20.0693 N.ar    1  UNL1       -0.2224
      5 C          -6.1606  -21.2575   20.2177 C.ar    1  UNL1        0.1989
      6 N          -7.2945  -20.5533   20.9021 N.ar    1  UNL1       -0.2240
      7 C          -9.1065  -16.9161   24.0205 C.ar    1  UNL1        0.0693
      8 C         -10.5032  -17.0531   23.4910 C.ar    1  UNL1        0.0217
      9 C         -10.7660  -17.8942   22.2772 C.ar    1  UNL1        0.0584
     10 CL        -12.1628  -18.0312   21.7477 Cl      1  UNL1       -0.0822
     11 C          -9.6321  -18.5984   21.5929 C.ar    1  UNL1        0.0129
     12 C          -8.2354  -18.4615   22.1224 C.ar    1  UNL1        0.0193
     13 C          -7.9726  -17.6203   23.3362 C.ar    1  UNL1        0.0118
     14 N          -8.5808  -15.2338   26.4482 N.1     1  UNL1       -0.1908
     15 C          -8.8436  -16.0749   25.2343 C.1     1  UNL1        0.1004
     16 C          -3.3135  -18.5031   20.4569 C.ar    1  UNL1        0.0991
     17 C          -2.3763  -18.9147   19.3604 C.ar    1  UNL1        0.0230
     18 C          -1.0494  -18.2313   19.2120 C.ar    1  UNL1        0.0328
     19 C          -0.6595  -17.1362   20.1602 C.ar    1  UNL1        0.1592
     20 F           0.6675  -16.4529   20.0118 F       1  UNL1       -0.2025
     21 C          -1.5967  -16.7247   21.2567 C.ar    1  UNL1        0.1284
     22 N          -2.9237  -17.4081   21.4050 N.ar    1  UNL1       -0.2400
@<TRIPOS>BOND
     1    14    15    3
     2    15     7    1
     3     7     8   ar
     4     8     9   ar
     5     9    10    1
     6     9    11   ar
     7    11    12   ar
     8    12     1    1
     9     1     2   ar
    10     2     3   ar
    11     3    16    1
    12    16    17   ar
    13    17    18   ar
    14    18    19   ar
    15    19    20    1
    16    19    21   ar
    17    21    22   ar
    18     3     4   ar
    19     4     5   ar
    20     5     6   ar
    21    12    13   ar
    22    13     7   ar
    23     6     1   ar
    24    22    16   ar
@<TRIPOS>MOLECULE
*****
 22 24 0 0 0
SMALL
GASTEIGER

@<TRIPOS>ATOM
      1 C          -6.9664  -18.8249   21.5689 C.ar    1  UNL1        0.0846
      2 C          -5.5983  -18.2324   21.4038 C.ar    1  UNL1        0.0398
      3 C          -4.5044  -19.0370   20.7665 C.ar    1  UNL1        0.1021
      4 N          -4.7787  -20.4340   20.2942 N.ar    1  UNL1       -0.2224
      5 C          -6.1469  -21.0265   20.4593 C.ar    1  UNL1        0.1989
      6 N          -7.2406  -20.2220   21.0967 N.ar    1  UNL1       -0.2240
      7 C         -10.5506  -17.2861   22.3007 C.ar    1  UNL1        0.0693
      8 C         -10.2479  -16.4113   23.4810 C.ar    1  UNL1        0.0217
      9 C          -8.8514  -16.3411   24.0239 C.ar    1  UNL1        0.0584
     10 CL         -8.5488  -15.4662   25.2043 Cl      1  UNL1       -0.0822
     11 C          -7.7576  -17.1456   23.3866 C.ar    1  UNL1        0.0129
     12 C          -8.0602  -18.0203   22.2063 C.ar    1  UNL1        0.0193
     13 C          -9.4568  -18.0906   21.6634 C.ar    1  UNL1        0.0118
     14 N         -13.3436  -17.4267   21.2147 N.1     1  UNL1       -0.1908
     15 C         -11.9471  -17.3564   21.7577 C.1     1  UNL1        0.1004
     16 C          -3.1364  -18.4445   20.6014 C.ar    1  UNL1        0.0991
     17 C          -2.1327  -19.1119   19.7085 C.ar    1  UNL1        0.0230
     18 C          -0.7647  -18.5194   19.5434 C.ar    1  UNL1        0.0328
     19 C          -0.4002  -17.2595   20.2712 C.ar    1  UNL1        0.1592
     20 F           0.9679  -16.6670   20.1061 F       1  UNL1       -0.2025
     21 C          -1.4038  -16.5920   21.1641 C.ar    1  UNL1        0.1284
     22 N          -2.7719  -17.1846   21.3292 N.ar    1  UNL1       -0.2400
@<TRIPOS>BOND
     1    14    15    3
     2    15     7    1
     3     7     8   ar
     4     8     9   ar
     5     9    10    1
     6     9    11   ar
     7    11    12   ar
     8    12     1    1
     9     1     2   ar
    10     2     3   ar
    11     3    16    1
    12    16    17   ar
    13    17    18   ar
    14    18    19   ar
    15    19    20    1
    16    19    21   ar
    17    21    22   ar
    18     3     4   ar
    19     4     5   ar
    20     5     6   ar
    21    12    13   ar
    22    13     7   ar
    23     6     1   ar
    24    22    16   ar
@<TRIPOS>MOLECULE
*****
 22 24 0 0 0
SMALL
GASTEIGER

@<TRIPOS>ATOM
      1 C           6.7045   -4.4321   23.7039 C.ar    1  UNL1        0.0846
      2 C           6.5569   -4.2059   25.1793 C.ar    1  UNL1        0.0398
      3 C           7.2475   -5.1169   26.1506 C.ar    1  UNL1        0.1021
      4 N           8.0857   -6.2540   25.6464 N.ar    1  UNL1       -0.2224
      5 C           8.2334   -6.4801   24.1708 C.ar    1  UNL1        0.1989
      6 N           7.5428   -5.5692   23.1996 N.ar    1  UNL1       -0.2240
      7 C           5.8332   -2.4871   20.3561 C.ar    1  UNL1        0.0693
      8 C           4.6328   -1.6994   20.7901 C.ar    1  UNL1        0.0217
      9 C           4.1230   -1.8225   22.1954 C.ar    1  UNL1        0.0584
     10 CL          2.9225   -1.0347   22.6294 Cl      1  UNL1       -0.0822
     11 C           4.8135   -2.7334   23.1667 C.ar    1  UNL1        0.0129
     12 C           6.0139   -3.5212   22.7326 C.ar    1  UNL1        0.0193
     13 C           6.5238   -3.3980   21.3273 C.ar    1  UNL1        0.0118
     14 N           6.8529   -2.2409   17.5454 N.1     1  UNL1       -0.1908
     15 C           6.3431   -2.3640   18.9508 C.1     1  UNL1        0.1004
     16 C           7.0998   -4.8907   27.6261 C.ar    1  UNL1        0.0991
     17 C           6.7362   -3.5305   28.1436 C.ar    1  UNL1        0.0230
     18 C           6.5886   -3.3043   29.6191 C.ar    1  UNL1        0.0328
     19 C           6.8044   -4.4383   30.5770 C.ar    1  UNL1        0.1592
     20 F           6.6568   -4.2121   32.0525 F       1  UNL1       -0.2025
     21 C           7.1680   -5.7984   30.0595 C.ar    1  UNL1        0.1284
     22 N           7.3157   -6.0246   28.5839 N.ar    1  UNL1       -0.2400
@<TRIPOS>BOND
     1    14    15    3
     2    15     7    1
     3     7     8   ar
     4     8     9   ar
     5     9    10    1
     6     9    11   ar
     7    11    12   ar
     8    12     1    1
     9     1     2   ar
    10     2     3   ar
    11     3    16    1
    12    16    17   ar
    13    17    18   ar
    14    18    19   ar
    15    19    20    1
    16    19    21   ar
    17    21    22   ar
    18     3     4   ar
    19     4     5   ar
    20     5     6   ar
    21    12    13   ar
    22    13     7   ar
    23     6     1   ar
    24    22    16   ar
