@<TRIPOS>MOLECULE
*****
 25 26 0 0 0
SMALL
GASTEIGER

@<TRIPOS>ATOM
      1 C          -6.7933  -19.7418   20.2440 C.3     1  UNL1        0.2969
      2 F          -7.2821  -18.3839   20.6525 F       1  UNL1       -0.1981
      3 F          -6.3044  -21.0998   19.8355 F       1  UNL1       -0.1981
      4 C          -4.1285  -18.3226   22.8198 C.ar    1  UNL1        0.1384
      5 C          -2.8687  -18.9467   22.2970 C.ar    1  UNL1        0.0369
      6 C          -2.9170  -19.8358   21.0899 C.ar    1  UNL1        0.0030
      7 C          -4.2252  -20.1009   20.4056 C.ar    1  UNL1        0.0012
      8 C          -5.4850  -19.4768   20.9283 C.ar    1  UNL1        0.0422
      9 C          -5.4366  -18.5876   22.1354 C.ar    1  UNL1        0.0379
     10 O          -4.0801  -17.4334   24.0269 O.3     1  UNL1       -0.4755
     11 C          -4.8541  -16.1487   24.0435 C.3     1  UNL1        0.2054
     12 C          -5.2512  -15.5292   25.3507 C.3     1  UNL1        0.0473
     13 C          -7.0491  -15.4907   27.2258 C.3     1  UNL1        0.0001
     14 C          -6.6916  -15.5199   25.7693 C.3     1  UNL1        0.0038
     15 C          -8.1015  -20.0069   19.5597 C.3     1  UNL1        0.1409
     16 N          -9.1182  -18.9111   19.4350 N.3     1  UNL1       -0.2850
     17 H          -9.0395  -18.5429   18.4871 H       1  UNL1        0.1239
     18 C         -10.5708  -19.2060   19.6657 C.3     1  UNL1        0.1553
     19 C         -11.3364  -18.4385   20.7024 C.2     1  UNL1        0.2418
     20 O         -12.2188  -17.2973   20.2910 O.2     1  UNL1       -0.2734
     21 N         -11.2198  -18.8121   22.1504 N.am    1  UNL1       -0.2784
     22 C         -11.9209  -18.1402   23.2936 C.3     1  UNL1        0.0935
     23 C         -11.5159  -18.8360   24.5592 C.3     1  UNL1        0.0233
     24 C         -10.5644  -19.9380   24.1982 C.3     1  UNL1        0.0233
     25 C         -10.3814  -19.9232   22.7095 C.3     1  UNL1        0.0935
@<TRIPOS>BOND
     1    13    14    1
     2    14    12    1
     3    12    11    1
     4    11    10    1
     5    10     4    1
     6     4     5   ar
     7     5     6   ar
     8     6     7   ar
     9     7     8   ar
    10     8     1    1
    11     1     2    1
    12     1     3    1
    13     1    15    1
    14    15    16    1
    15    16    18    1
    16    18    19    1
    17    19    20    2
    18    19    21   am
    19    21    22    1
    20    22    23    1
    21    23    24    1
    22    24    25    1
    23     8     9   ar
    24     9     4   ar
    25    25    21    1
    26    16    17    1
@<TRIPOS>MOLECULE
*****
 25 26 0 0 0
SMALL
GASTEIGER

@<TRIPOS>ATOM
      1 C          -8.2542  -19.3563   20.8377 C.3     1  UNL1        0.2969
      2 F          -8.4067  -19.4154   22.3287 F       1  UNL1       -0.1981
      3 F          -8.1017  -19.2971   19.3466 F       1  UNL1       -0.1981
      4 C          -4.5410  -19.0074   22.1944 C.ar    1  UNL1        0.1384
      5 C          -3.8126  -19.9362   21.2688 C.ar    1  UNL1        0.0369
      6 C          -4.5647  -20.6717   20.1995 C.ar    1  UNL1        0.0030
      7 C          -6.0452  -20.4784   20.0558 C.ar    1  UNL1        0.0012
      8 C          -6.7736  -19.5496   20.9814 C.ar    1  UNL1        0.0422
      9 C          -6.0215  -18.8141   22.0506 C.ar    1  UNL1        0.0379
     10 O          -3.7889  -18.2719   23.2636 O.3     1  UNL1       -0.4755
     11 C          -2.4484  -17.6714   22.9598 C.3     1  UNL1        0.2054
     12 C          -2.3372  -16.5432   21.9775 C.3     1  UNL1        0.0473
     13 C          -1.8916  -17.4028   19.5665 C.3     1  UNL1        0.0001
     14 C          -1.4289  -16.6692   20.7904 C.3     1  UNL1        0.0038
     15 C          -9.7347  -19.1629   20.6939 C.3     1  UNL1        0.1409
     16 N         -10.2688  -17.9313   20.0247 N.3     1  UNL1       -0.2850
     17 H         -10.9962  -18.2389   19.3793 H       1  UNL1        0.1239
     18 C         -10.8601  -16.8264   20.8491 C.3     1  UNL1        0.1553
     19 C         -10.7518  -16.8661   22.3446 C.2     1  UNL1        0.2418
     20 O         -11.8972  -17.3793   23.1662 O.2     1  UNL1       -0.2734
     21 N          -9.4983  -16.3926   23.0186 N.am    1  UNL1       -0.2784
     22 C          -9.2458  -16.3725   24.4971 C.3     1  UNL1        0.0935
     23 C          -7.8686  -15.8235   24.7248 C.3     1  UNL1        0.0233
     24 C          -7.2699  -15.5043   23.3869 C.3     1  UNL1        0.0233
     25 C          -8.2771  -15.8560   22.3325 C.3     1  UNL1        0.0935
@<TRIPOS>BOND
     1    13    14    1
     2    14    12    1
     3    12    11    1
     4    11    10    1
     5    10     4    1
     6     4     5   ar
     7     5     6   ar
     8     6     7   ar
     9     7     8   ar
    10     8     1    1
    11     1     2    1
    12     1     3    1
    13     1    15    1
    14    15    16    1
    15    16    18    1
    16    18    19    1
    17    19    20    2
    18    19    21   am
    19    21    22    1
    20    22    23    1
    21    23    24    1
    22    24    25    1
    23     8     9   ar
    24     9     4   ar
    25    25    21    1
    26    16    17    1
@<TRIPOS>MOLECULE
*****
 25 26 0 0 0
SMALL
GASTEIGER

@<TRIPOS>ATOM
      1 C          -7.7706  -16.5071   24.0053 C.3     1  UNL1        0.2969
      2 F          -7.2017  -17.1704   22.7862 F       1  UNL1       -0.1981
      3 F          -8.3396  -15.8438   25.2244 F       1  UNL1       -0.1981
      4 C         -11.0689  -17.8047   22.2200 C.ar    1  UNL1        0.1384
      5 C         -11.6889  -18.6117   23.3218 C.ar    1  UNL1        0.0369
      6 C         -11.0028  -18.7172   24.6516 C.ar    1  UNL1        0.0030
      7 C          -9.6968  -18.0157   24.8794 C.ar    1  UNL1        0.0012
      8 C          -9.0768  -17.2087   23.7775 C.ar    1  UNL1        0.0422
      9 C          -9.7628  -17.1032   22.4478 C.ar    1  UNL1        0.0379
     10 O         -11.7550  -17.6992   20.8902 O.3     1  UNL1       -0.4755
     11 C         -11.0413  -18.1265   19.6420 C.3     1  UNL1        0.2054
     12 C         -10.4195  -19.4892   19.5628 C.3     1  UNL1        0.0473
     13 C          -7.9062  -19.3796   20.2123 C.3     1  UNL1        0.0001
     14 C          -8.9738  -19.6333   19.1895 C.3     1  UNL1        0.0038
     15 C          -6.4645  -15.8055   24.2331 C.3     1  UNL1        0.1409
     16 N          -5.3516  -15.9507   23.2380 N.3     1  UNL1       -0.2850
     17 H          -5.0534  -15.0073   22.9900 H       1  UNL1        0.1239
     18 C          -4.1133  -16.7143   23.6038 C.3     1  UNL1        0.1553
     19 C          -3.7028  -17.9092   22.7954 C.2     1  UNL1        0.2418
     20 O          -4.3620  -19.2360   23.0302 O.2     1  UNL1       -0.2734
     21 N          -2.6331  -17.7774   21.7521 N.am    1  UNL1       -0.2784
     22 C          -2.1205  -18.8777   20.8709 C.3     1  UNL1        0.0935
     23 C          -1.0588  -18.3024   19.9811 C.3     1  UNL1        0.0233
     24 C          -0.9153  -16.8465   20.3123 C.3     1  UNL1        0.0233
     25 C          -1.8883  -16.5220   21.4068 C.3     1  UNL1        0.0935
@<TRIPOS>BOND
     1    13    14    1
     2    14    12    1
     3    12    11    1
     4    11    10    1
     5    10     4    1
     6     4     5   ar
     7     5     6   ar
     8     6     7   ar
     9     7     8   ar
    10     8     1    1
    11     1     2    1
    12     1     3    1
    13     1    15    1
    14    15    16    1
    15    16    18    1
    16    18    19    1
    17    19    20    2
    18    19    21   am
    19    21    22    1
    20    22    23    1
    21    23    24    1
    22    24    25    1
    23     8     9   ar
    24     9     4   ar
    25    25    21    1
    26    16    17    1
@<TRIPOS>MOLECULE
*****
 25 26 0 0 0
SMALL
GASTEIGER

@<TRIPOS>ATOM
      1 C          -7.6008  -17.0500   22.5963 C.3     1  UNL1        0.2969
      2 F          -7.1250  -18.3927   23.0660 F       1  UNL1       -0.1981
      3 F          -8.0765  -15.7073   22.1265 F       1  UNL1       -0.1981
      4 C         -10.7848  -17.7947   20.3474 C.ar    1  UNL1        0.1384
      5 C         -10.3550  -19.0544   19.6557 C.ar    1  UNL1        0.0369
      6 C          -9.0071  -19.6460   19.9442 C.ar    1  UNL1        0.0030
      7 C          -8.0890  -18.9779   20.9244 C.ar    1  UNL1        0.0012
      8 C          -8.5188  -17.7182   21.6160 C.ar    1  UNL1        0.0422
      9 C          -9.8667  -17.1266   21.3275 C.ar    1  UNL1        0.0379
     10 O         -12.1327  -17.2032   20.0589 O.3     1  UNL1       -0.4755
     11 C         -12.8055  -16.3360   21.0812 C.3     1  UNL1        0.2054
     12 C         -12.5169  -16.5342   22.5397 C.3     1  UNL1        0.0473
     13 C         -12.0695  -18.5422   24.1265 C.3     1  UNL1        0.0001
     14 C         -13.0001  -17.7704   23.2386 C.3     1  UNL1        0.0038
     15 C          -6.6827  -16.3818   23.5764 C.3     1  UNL1        0.1409
     16 N          -5.2441  -16.1514   23.2197 N.3     1  UNL1       -0.2850
     17 H          -4.9895  -15.2390   23.5979 H       1  UNL1        0.1239
     18 C          -4.1934  -17.1188   23.6782 C.3     1  UNL1        0.1553
     19 C          -3.7185  -18.2028   22.7566 C.2     1  UNL1        0.2418
     20 O          -4.3031  -19.5807   22.8553 O.2     1  UNL1       -0.2734
     21 N          -2.6591  -17.9088   21.7362 N.am    1  UNL1       -0.2784
     22 C          -2.0876  -18.8860   20.7520 C.3     1  UNL1        0.0935
     23 C          -1.0605  -18.1672   19.9283 C.3     1  UNL1        0.0233
     24 C          -0.9972  -16.7458   20.4035 C.3     1  UNL1        0.0233
     25 C          -1.9852  -16.5862   21.5208 C.3     1  UNL1        0.0935
@<TRIPOS>BOND
     1    13    14    1
     2    14    12    1
     3    12    11    1
     4    11    10    1
     5    10     4    1
     6     4     5   ar
     7     5     6   ar
     8     6     7   ar
     9     7     8   ar
    10     8     1    1
    11     1     2    1
    12     1     3    1
    13     1    15    1
    14    15    16    1
    15    16    18    1
    16    18    19    1
    17    19    20    2
    18    19    21   am
    19    21    22    1
    20    22    23    1
    21    23    24    1
    22    24    25    1
    23     8     9   ar
    24     9     4   ar
    25    25    21    1
    26    16    17    1
@<TRIPOS>MOLECULE
*****
 25 26 0 0 0
SMALL
GASTEIGER

@<TRIPOS>ATOM
      1 C          -5.3282  -16.1921   23.6732 C.3     1  UNL1        0.2969
      2 F          -5.3260  -17.6692   23.9340 F       1  UNL1       -0.1981
      3 F          -5.3304  -14.7150   23.4124 F       1  UNL1       -0.1981
      4 C          -9.1231  -16.7295   22.6436 C.ar    1  UNL1        0.1384
      5 C          -9.8248  -16.1684   23.8447 C.ar    1  UNL1        0.0369
      6 C          -9.0277  -15.6152   24.9886 C.ar    1  UNL1        0.0030
      7 C          -7.5289  -15.6231   24.9315 C.ar    1  UNL1        0.0012
      8 C          -6.8271  -16.1842   23.7304 C.ar    1  UNL1        0.0422
      9 C          -7.6242  -16.7374   22.5864 C.ar    1  UNL1        0.0379
     10 O          -9.9202  -17.2827   21.4996 O.3     1  UNL1       -0.4755
     11 C         -10.0997  -18.7651   21.3581 C.3     1  UNL1        0.2054
     12 C         -11.0432  -19.4964   22.2664 C.3     1  UNL1        0.0473
     13 C          -9.7769  -19.7886   24.5162 C.3     1  UNL1        0.0001
     14 C         -10.5051  -20.3853   23.3483 C.3     1  UNL1        0.0038
     15 C          -3.8293  -16.1999   23.6160 C.3     1  UNL1        0.1409
     16 N          -3.1280  -16.7233   22.3977 N.3     1  UNL1       -0.2850
     17 H          -2.4360  -16.0225   22.1324 H       1  UNL1        0.1239
     18 C          -2.4116  -18.0401   22.4524 C.3     1  UNL1        0.1553
     19 C          -2.5504  -19.0170   21.3226 C.2     1  UNL1        0.2418
     20 O          -1.3763  -19.3106   20.4364 O.2     1  UNL1       -0.2734
     21 N          -3.8634  -19.7001   21.0789 N.am    1  UNL1       -0.2784
     22 C          -4.1516  -20.6951   19.9940 C.3     1  UNL1        0.0935
     23 C          -5.5850  -21.1182   20.1219 C.3     1  UNL1        0.0233
     24 C          -6.1826  -20.3847   21.2859 C.3     1  UNL1        0.0233
     25 C          -5.1186  -19.5083   21.8773 C.3     1  UNL1        0.0935
@<TRIPOS>BOND
     1    13    14    1
     2    14    12    1
     3    12    11    1
     4    11    10    1
     5    10     4    1
     6     4     5   ar
     7     5     6   ar
     8     6     7   ar
     9     7     8   ar
    10     8     1    1
    11     1     2    1
    12     1     3    1
    13     1    15    1
    14    15    16    1
    15    16    18    1
    16    18    19    1
    17    19    20    2
    18    19    21   am
    19    21    22    1
    20    22    23    1
    21    23    24    1
    22    24    25    1
    23     8     9   ar
    24     9     4   ar
    25    25    21    1
    26    16    17    1
@<TRIPOS>MOLECULE
*****
 25 26 0 0 0
SMALL
GASTEIGER

@<TRIPOS>ATOM
      1 C          -6.6123  -16.8944   23.0278 C.3     1  UNL1        0.2969
      2 F          -6.0463  -18.2834   23.0263 F       1  UNL1       -0.1981
      3 F          -7.1784  -15.5053   23.0293 F       1  UNL1       -0.1981
      4 C         -10.2186  -17.0564   21.3789 C.ar    1  UNL1        0.1384
      5 C         -10.1042  -18.3144   20.5700 C.ar    1  UNL1        0.0369
      6 C          -8.8258  -19.0991   20.5804 C.ar    1  UNL1        0.0030
      7 C          -7.6619  -18.6258   21.3997 C.ar    1  UNL1        0.0012
      8 C          -7.7763  -17.3678   22.2085 C.ar    1  UNL1        0.0422
      9 C          -9.0547  -16.5831   22.1981 C.ar    1  UNL1        0.0379
     10 O         -11.4969  -16.2717   21.3685 O.3     1  UNL1       -0.4755
     11 C         -12.8020  -16.9675   21.1186 C.3     1  UNL1        0.2054
     12 C         -13.3108  -17.9822   22.0992 C.3     1  UNL1        0.0473
     13 C         -11.9363  -18.5377   24.2328 C.3     1  UNL1        0.0001
     14 C         -13.0591  -17.7991   23.5666 C.3     1  UNL1        0.0038
     15 C          -5.4485  -16.4209   23.8470 C.3     1  UNL1        0.1409
     16 N          -4.2052  -15.9270   23.1685 N.3     1  UNL1       -0.2850
     17 H          -3.8955  -15.1035   23.6846 H       1  UNL1        0.1239
     18 C          -3.0139  -16.8289   23.0368 C.3     1  UNL1        0.1553
     19 C          -2.4465  -17.1288   21.6810 C.2     1  UNL1        0.2418
     20 O          -1.3820  -16.2452   21.1012 O.2     1  UNL1       -0.2734
     21 N          -2.9436  -18.3123   20.9050 N.am    1  UNL1       -0.2784
     22 C          -2.4736  -18.7354   19.5448 C.3     1  UNL1        0.0935
     23 C          -3.2375  -19.9651   19.1521 C.3     1  UNL1        0.0233
     24 C          -4.1797  -20.3021   20.2697 C.3     1  UNL1        0.0233
     25 C          -3.9980  -19.2806   21.3530 C.3     1  UNL1        0.0935
@<TRIPOS>BOND
     1    13    14    1
     2    14    12    1
     3    12    11    1
     4    11    10    1
     5    10     4    1
     6     4     5   ar
     7     5     6   ar
     8     6     7   ar
     9     7     8   ar
    10     8     1    1
    11     1     2    1
    12     1     3    1
    13     1    15    1
    14    15    16    1
    15    16    18    1
    16    18    19    1
    17    19    20    2
    18    19    21   am
    19    21    22    1
    20    22    23    1
    21    23    24    1
    22    24    25    1
    23     8     9   ar
    24     9     4   ar
    25    25    21    1
    26    16    17    1
@<TRIPOS>MOLECULE
*****
 25 26 0 0 0
SMALL
GASTEIGER

@<TRIPOS>ATOM
      1 C          -5.9032  -16.0202   23.6363 C.3     1  UNL1        0.2969
      2 F          -5.2749  -17.3654   23.8497 F       1  UNL1       -0.1981
      3 F          -6.5315  -14.6750   23.4228 F       1  UNL1       -0.1981
      4 C          -8.9624  -18.3014   22.5466 C.ar    1  UNL1        0.1384
      5 C          -9.9772  -17.9307   23.5870 C.ar    1  UNL1        0.0369
      6 C          -9.6340  -16.9231   24.6440 C.ar    1  UNL1        0.0030
      7 C          -8.2761  -16.2863   24.6604 C.ar    1  UNL1        0.0012
      8 C          -7.2613  -16.6570   23.6199 C.ar    1  UNL1        0.0422
      9 C          -7.6044  -17.6646   22.5630 C.ar    1  UNL1        0.0379
     10 O          -9.3056  -19.3090   21.4896 O.3     1  UNL1       -0.4755
     11 C         -10.7388  -19.6715   21.2362 C.3     1  UNL1        0.2054
     12 C         -11.7037  -18.6267   20.7593 C.3     1  UNL1        0.0473
     13 C         -11.1995  -16.1104   20.3540 C.3     1  UNL1        0.0001
     14 C         -11.2312  -17.5254   19.8571 C.3     1  UNL1        0.0038
     15 C          -4.5452  -15.3833   23.6526 C.3     1  UNL1        0.1409
     16 N          -3.6578  -15.4782   22.4471 N.3     1  UNL1       -0.2850
     17 H          -3.2412  -14.5566   22.3148 H       1  UNL1        0.1239
     18 C          -2.5326  -16.4699   22.4203 C.3     1  UNL1        0.1553
     19 C          -2.2282  -17.2249   21.1604 C.2     1  UNL1        0.2418
     20 O          -1.0799  -16.8033   20.2922 O.2     1  UNL1       -0.2734
     21 N          -3.0720  -18.4016   20.7688 N.am    1  UNL1       -0.2784
     22 C          -2.8895  -19.2489   19.5445 C.3     1  UNL1        0.0935
     23 C          -3.9513  -20.3085   19.5517 C.3     1  UNL1        0.0233
     24 C          -4.7899  -20.1159   20.7804 C.3     1  UNL1        0.0233
     25 C          -4.2465  -18.9374   21.5325 C.3     1  UNL1        0.0935
@<TRIPOS>BOND
     1    13    14    1
     2    14    12    1
     3    12    11    1
     4    11    10    1
     5    10     4    1
     6     4     5   ar
     7     5     6   ar
     8     6     7   ar
     9     7     8   ar
    10     8     1    1
    11     1     2    1
    12     1     3    1
    13     1    15    1
    14    15    16    1
    15    16    18    1
    16    18    19    1
    17    19    20    2
    18    19    21   am
    19    21    22    1
    20    22    23    1
    21    23    24    1
    22    24    25    1
    23     8     9   ar
    24     9     4   ar
    25    25    21    1
    26    16    17    1
@<TRIPOS>MOLECULE
*****
 25 26 0 0 0
SMALL
GASTEIGER

@<TRIPOS>ATOM
      1 C         -12.9916   -7.5275   18.0073 C.3     1  UNL1        0.2969
      2 F         -13.6357   -6.9776   19.2452 F       1  UNL1       -0.1981
      3 F         -12.3474   -8.0774   16.7693 F       1  UNL1       -0.1981
      4 C         -10.8534   -4.2017   17.6648 C.ar    1  UNL1        0.1384
      5 C          -9.6268   -4.5717   18.4448 C.ar    1  UNL1        0.0369
      6 C          -9.5218   -5.9270   19.0791 C.ar    1  UNL1        0.0030
      7 C         -10.6433   -6.9122   18.9332 C.ar    1  UNL1        0.0012
      8 C         -11.8699   -6.5422   18.1531 C.ar    1  UNL1        0.0422
      9 C         -11.9749   -5.1870   17.5189 C.ar    1  UNL1        0.0379
     10 O         -10.9584   -2.8465   17.0305 O.3     1  UNL1       -0.4755
     11 C         -11.9832   -1.8666   17.5201 C.3     1  UNL1        0.2054
     12 C         -12.3020   -1.7832   18.9835 C.3     1  UNL1        0.0473
     13 C         -13.5629   -3.5155   20.4531 C.3     1  UNL1        0.0001
     14 C         -13.5878   -2.3537   19.5046 C.3     1  UNL1        0.0038
     15 C         -14.1131   -8.5128   17.8613 C.3     1  UNL1        0.1409
     16 N         -14.6403   -9.2331   19.0669 N.3     1  UNL1       -0.2850
     17 H         -14.0688   -8.9390   19.8589 H       1  UNL1        0.1239
     18 C         -16.0724   -9.0589   19.4779 C.3     1  UNL1        0.1553
     19 C         -17.0554   -8.4413   18.5281 C.2     1  UNL1        0.2418
     20 O         -17.7531   -9.2947   17.5108 O.2     1  UNL1       -0.2734
     21 N         -17.3408   -6.9702   18.5956 N.am    1  UNL1       -0.2784
     22 C         -18.2936   -6.2156   17.7165 C.3     1  UNL1        0.0935
     23 C         -18.2651   -4.7745   18.1317 C.3     1  UNL1        0.0233
     24 C         -17.2947   -4.6385   19.2674 C.3     1  UNL1        0.0233
     25 C         -16.7234   -5.9955   19.5541 C.3     1  UNL1        0.0935
@<TRIPOS>BOND
     1    13    14    1
     2    14    12    1
     3    12    11    1
     4    11    10    1
     5    10     4    1
     6     4     5   ar
     7     5     6   ar
     8     6     7   ar
     9     7     8   ar
    10     8     1    1
    11     1     2    1
    12     1     3    1
    13     1    15    1
    14    15    16    1
    15    16    18    1
    16    18    19    1
    17    19    20    2
    18    19    21   am
    19    21    22    1
    20    22    23    1
    21    23    24    1
    22    24    25    1
    23     8     9   ar
    24     9     4   ar
    25    25    21    1
    26    16    17    1
@<TRIPOS>MOLECULE
*****
 25 26 0 0 0
SMALL
GASTEIGER

@<TRIPOS>ATOM
      1 C           8.0277   -8.2551   27.4861 C.3     1  UNL1        0.2969
      2 F           9.1185   -8.1035   28.5044 F       1  UNL1       -0.1981
      3 F           6.9369   -8.4067   26.4677 F       1  UNL1       -0.1981
      4 C           8.7362   -4.3842   27.9998 C.ar    1  UNL1        0.1384
      5 C           8.0577   -3.8091   26.7920 C.ar    1  UNL1        0.0369
      6 C           7.3692   -4.7159   25.8155 C.ar    1  UNL1        0.0030
      7 C           7.3592   -6.1979   26.0469 C.ar    1  UNL1        0.0012
      8 C           8.0377   -6.7730   27.2547 C.ar    1  UNL1        0.0422
      9 C           8.7262   -5.8661   28.2312 C.ar    1  UNL1        0.0379
     10 O           9.4247   -3.4773   28.9763 O.3     1  UNL1       -0.4755
     11 C           9.0188   -3.4834   30.4203 C.3     1  UNL1        0.2054
     12 C           7.5799   -3.2874   30.7957 C.3     1  UNL1        0.0473
     13 C           7.1083   -5.7527   31.4668 C.3     1  UNL1        0.0001
     14 C           6.8937   -4.2839   31.6826 C.3     1  UNL1        0.0038
     15 C           8.0177   -9.7371   27.7174 C.3     1  UNL1        0.1409
     16 N           6.7137  -10.4704   27.8259 N.3     1  UNL1       -0.2850
     17 H           6.2441  -10.3709   26.9258 H       1  UNL1        0.1239
     18 C           6.7010  -11.9324   28.1616 C.3     1  UNL1        0.1553
     19 C           5.7327  -12.8508   27.4769 C.2     1  UNL1        0.2418
     20 O           6.1602  -13.6217   26.2632 O.2     1  UNL1       -0.2734
     21 N           4.3368  -12.9983   28.0058 N.am    1  UNL1       -0.2784
     22 C           3.2637  -13.8740   27.4300 C.3     1  UNL1        0.0935
     23 C           2.0326  -13.7129   28.2717 C.3     1  UNL1        0.0233
     24 C           2.3449  -12.7375   29.3678 C.3     1  UNL1        0.0233
     25 C           3.7690  -12.2959   29.2034 C.3     1  UNL1        0.0935
@<TRIPOS>BOND
     1    13    14    1
     2    14    12    1
     3    12    11    1
     4    11    10    1
     5    10     4    1
     6     4     5   ar
     7     5     6   ar
     8     6     7   ar
     9     7     8   ar
    10     8     1    1
    11     1     2    1
    12     1     3    1
    13     1    15    1
    14    15    16    1
    15    16    18    1
    16    18    19    1
    17    19    20    2
    18    19    21   am
    19    21    22    1
    20    22    23    1
    21    23    24    1
    22    24    25    1
    23     8     9   ar
    24     9     4   ar
    25    25    21    1
    26    16    17    1
