@<TRIPOS>MOLECULE
*****
 24 26 0 0 0
SMALL
GASTEIGER

@<TRIPOS>ATOM
      1 O          -8.8521  -20.7279   18.2444 O.2     1  UNL1       -0.2262
      2 C          -8.7569  -19.6511   19.2844 C.2     1  UNL1        0.4052
      3 N          -7.5459  -19.5642   20.1652 N.am    1  UNL1       -0.2460
      4 C          -7.4506  -18.4875   21.2052 C.3     1  UNL1        0.0968
      5 C          -6.2396  -18.4006   22.0860 C.3     1  UNL1        0.0234
      6 C          -5.1238  -19.3905   21.9269 C.3     1  UNL1        0.0230
      7 C          -5.2191  -20.4672   20.8869 C.3     1  UNL1        0.0234
      8 C          -6.4302  -20.5541   20.0060 C.3     1  UNL1        0.0968
      9 O          -9.8727  -18.6613   19.4435 O.3     1  UNL1       -0.4295
     10 C         -11.1927  -19.1026   20.0025 C.3     1  UNL1        0.2367
     11 C         -11.4786  -18.9427   21.4663 C.ar    1  UNL1        0.0213
     12 C         -12.5492  -17.9962   21.9224 C.ar    1  UNL1       -0.0007
     13 C         -12.8350  -17.8363   23.3862 C.ar    1  UNL1       -0.0002
     14 C         -12.0502  -18.6229   24.3939 C.ar    1  UNL1       -0.0000
     15 C         -10.9796  -19.5693   23.9378 C.ar    1  UNL1       -0.0002
     16 C         -10.6938  -19.7292   22.4740 C.ar    1  UNL1       -0.0007
     17 C          -3.9128  -19.3036   22.8077 C.3     1  UNL1        0.0887
     18 N          -2.9928  -18.1234   22.7036 N.pl3   1  UNL1       -0.3116
     19 H          -3.0463  -17.3975   23.3665 H       1  UNL1        0.1487
     20 C          -1.9912  -18.0493   21.5895 C.ar    1  UNL1        0.1825
     21 N          -1.3565  -19.2178   20.8952 N.ar    1  UNL1       -0.1256
     22 N          -0.4215  -18.6843   19.8506 N.ar    1  UNL1       -0.1374
     23 C          -0.4781  -17.1861   19.8993 C.ar    1  UNL1        0.1604
     24 S          -1.4483  -16.7937   20.9740 S.2     1  UNL1       -0.0287
@<TRIPOS>BOND
     1     1     2    2
     2     2     9    1
     3     9    10    1
     4    10    11    1
     5    11    12   ar
     6    12    13   ar
     7    13    14   ar
     8    14    15   ar
     9    15    16   ar
    10     2     3   am
    11     3     4    1
    12     4     5    1
    13     5     6    1
    14     6    17    1
    15    17    18    1
    16    18    20    1
    17    20    21   ar
    18    21    22   ar
    19    22    23   ar
    20    23    24   ar
    21     6     7    1
    22     7     8    1
    23    16    11   ar
    24     8     3    1
    25    24    20   ar
    26    18    19    1
@<TRIPOS>MOLECULE
*****
 24 26 0 0 0
SMALL
GASTEIGER

@<TRIPOS>ATOM
      1 O         -11.0518  -18.0560   21.3204 O.2     1  UNL1       -0.2262
      2 C          -9.8627  -18.1605   22.2288 C.2     1  UNL1        0.4052
      3 N          -8.5708  -18.7205   21.7117 N.am    1  UNL1       -0.2460
      4 C          -7.3817  -18.8250   22.6201 C.3     1  UNL1        0.0968
      5 C          -6.0898  -19.3850   22.1030 C.3     1  UNL1        0.0234
      6 C          -5.9869  -19.8405   20.6775 C.3     1  UNL1        0.0230
      7 C          -7.1760  -19.7359   19.7691 C.3     1  UNL1        0.0234
      8 C          -8.4680  -19.1759   20.2863 C.3     1  UNL1        0.0968
      9 O          -9.9655  -17.7050   23.6543 O.3     1  UNL1       -0.4295
     10 C          -9.6434  -16.2846   24.0129 C.3     1  UNL1        0.2367
     11 C          -8.4372  -15.9775   24.8501 C.ar    1  UNL1        0.0213
     12 C          -8.4964  -16.1424   26.3398 C.ar    1  UNL1       -0.0007
     13 C          -7.2903  -15.8352   27.1769 C.ar    1  UNL1       -0.0002
     14 C          -6.0249  -15.3632   26.5243 C.ar    1  UNL1       -0.0000
     15 C          -5.9656  -15.1983   25.0346 C.ar    1  UNL1       -0.0002
     16 C          -7.1718  -15.5054   24.1975 C.ar    1  UNL1       -0.0007
     17 C          -4.6951  -20.4004   20.1604 C.3     1  UNL1        0.0887
     18 N          -3.4173  -20.1489   20.9047 N.pl3   1  UNL1       -0.3116
     19 H          -3.0210  -20.8610   21.4570 H       1  UNL1        0.1487
     20 C          -2.7433  -18.8124   20.8075 C.ar    1  UNL1        0.1825
     21 N          -3.1699  -17.5567   21.5087 N.ar    1  UNL1       -0.1256
     22 N          -2.2147  -16.4651   21.1267 N.ar    1  UNL1       -0.1374
     23 C          -1.1977  -17.0460   20.1894 C.ar    1  UNL1        0.1604
     24 S          -1.5244  -18.4968   19.9922 S.2     1  UNL1       -0.0287
@<TRIPOS>BOND
     1     1     2    2
     2     2     9    1
     3     9    10    1
     4    10    11    1
     5    11    12   ar
     6    12    13   ar
     7    13    14   ar
     8    14    15   ar
     9    15    16   ar
    10     2     3   am
    11     3     4    1
    12     4     5    1
    13     5     6    1
    14     6    17    1
    15    17    18    1
    16    18    20    1
    17    20    21   ar
    18    21    22   ar
    19    22    23   ar
    20    23    24   ar
    21     6     7    1
    22     7     8    1
    23    16    11   ar
    24     8     3    1
    25    24    20   ar
    26    18    19    1
@<TRIPOS>MOLECULE
*****
 24 26 0 0 0
SMALL
GASTEIGER

@<TRIPOS>ATOM
      1 O          -5.0569  -19.7431   19.6621 O.2     1  UNL1       -0.2262
      2 C          -5.7162  -19.7860   21.0088 C.2     1  UNL1        0.4052
      3 N          -7.2089  -19.6857   21.1166 N.am    1  UNL1       -0.2460
      4 C          -7.8681  -19.7287   22.4633 C.3     1  UNL1        0.0968
      5 C          -9.3609  -19.6284   22.5712 C.3     1  UNL1        0.0234
      6 C         -10.1944  -19.4852   21.3323 C.3     1  UNL1        0.0230
      7 C          -9.5352  -19.4422   19.9856 C.3     1  UNL1        0.0234
      8 C          -8.0424  -19.5425   19.8778 C.3     1  UNL1        0.0968
      9 O          -4.8826  -19.9293   22.2477 O.3     1  UNL1       -0.4295
     10 C          -4.1161  -18.7532   22.7760 C.3     1  UNL1        0.2367
     11 C          -2.9811  -18.1790   21.9807 C.ar    1  UNL1        0.0213
     12 C          -2.6463  -16.7215   22.0962 C.ar    1  UNL1       -0.0007
     13 C          -1.5114  -16.1474   21.3010 C.ar    1  UNL1       -0.0002
     14 C          -0.7114  -17.0309   20.3903 C.ar    1  UNL1       -0.0000
     15 C          -1.0462  -18.4884   20.2748 C.ar    1  UNL1       -0.0002
     16 C          -2.1811  -19.0625   21.0700 C.ar    1  UNL1       -0.0007
     17 C         -11.6871  -19.3849   21.4402 C.3     1  UNL1        0.0887
     18 N         -12.3506  -18.0396   21.4375 N.pl3   1  UNL1       -0.3116
     19 H         -13.2140  -17.9157   21.8940 H       1  UNL1        0.1487
     20 C         -11.6986  -16.8831   20.7394 C.ar    1  UNL1        0.1825
     21 N         -11.9949  -16.4137   19.3458 N.ar    1  UNL1       -0.1256
     22 N         -11.1152  -15.2335   19.0573 N.ar    1  UNL1       -0.1374
     23 C         -10.2752  -14.9734   20.2726 C.ar    1  UNL1        0.1604
     24 S         -10.6358  -15.9930   21.3122 S.2     1  UNL1       -0.0287
@<TRIPOS>BOND
     1     1     2    2
     2     2     9    1
     3     9    10    1
     4    10    11    1
     5    11    12   ar
     6    12    13   ar
     7    13    14   ar
     8    14    15   ar
     9    15    16   ar
    10     2     3   am
    11     3     4    1
    12     4     5    1
    13     5     6    1
    14     6    17    1
    15    17    18    1
    16    18    20    1
    17    20    21   ar
    18    21    22   ar
    19    22    23   ar
    20    23    24   ar
    21     6     7    1
    22     7     8    1
    23    16    11   ar
    24     8     3    1
    25    24    20   ar
    26    18    19    1
@<TRIPOS>MOLECULE
*****
 24 26 0 0 0
SMALL
GASTEIGER

@<TRIPOS>ATOM
      1 O          -8.2041  -20.4049   18.6732 O.2     1  UNL1       -0.2262
      2 C          -7.4912  -20.1380   19.9657 C.2     1  UNL1        0.4052
      3 N          -8.1081  -19.2315   20.9892 N.am    1  UNL1       -0.2460
      4 C          -7.3953  -18.9646   22.2817 C.3     1  UNL1        0.0968
      5 C          -8.0122  -18.0581   23.3051 C.3     1  UNL1        0.0234
      6 C          -9.3421  -17.4184   23.0361 C.3     1  UNL1        0.0230
      7 C         -10.0549  -17.6853   21.7436 C.3     1  UNL1        0.0234
      8 C          -9.4379  -18.5919   20.7201 C.3     1  UNL1        0.0968
      9 O          -6.1613  -20.7777   20.2347 O.3     1  UNL1       -0.4295
     10 C          -4.9307  -20.2680   19.5451 C.3     1  UNL1        0.2367
     11 C          -4.0018  -19.3336   20.2622 C.ar    1  UNL1        0.0213
     12 C          -3.0899  -18.4357   19.4798 C.ar    1  UNL1       -0.0007
     13 C          -2.1611  -17.5013   20.1968 C.ar    1  UNL1       -0.0002
     14 C          -2.1441  -17.4649   21.6963 C.ar    1  UNL1       -0.0000
     15 C          -3.0560  -18.3628   22.4787 C.ar    1  UNL1       -0.0002
     16 C          -3.9848  -19.2971   21.7616 C.ar    1  UNL1       -0.0007
     17 C          -9.9590  -16.5118   24.0596 C.3     1  UNL1        0.0887
     18 N          -9.2925  -15.2150   24.4119 N.pl3   1  UNL1       -0.3116
     19 H          -9.7096  -14.3613   24.1540 H       1  UNL1        0.1487
     20 C          -7.9907  -15.2189   25.1569 C.ar    1  UNL1        0.1825
     21 N          -6.6551  -14.8228   24.6005 N.ar    1  UNL1       -0.1256
     22 N          -5.6348  -14.9787   25.6889 N.ar    1  UNL1       -0.1374
     23 C          -6.3397  -15.4711   26.9181 C.ar    1  UNL1        0.1604
     24 S          -7.7958  -15.6196   26.5893 S.2     1  UNL1       -0.0287
@<TRIPOS>BOND
     1     1     2    2
     2     2     9    1
     3     9    10    1
     4    10    11    1
     5    11    12   ar
     6    12    13   ar
     7    13    14   ar
     8    14    15   ar
     9    15    16   ar
    10     2     3   am
    11     3     4    1
    12     4     5    1
    13     5     6    1
    14     6    17    1
    15    17    18    1
    16    18    20    1
    17    20    21   ar
    18    21    22   ar
    19    22    23   ar
    20    23    24   ar
    21     6     7    1
    22     7     8    1
    23    16    11   ar
    24     8     3    1
    25    24    20   ar
    26    18    19    1
@<TRIPOS>MOLECULE
*****
 24 26 0 0 0
SMALL
GASTEIGER

@<TRIPOS>ATOM
      1 O           6.6718   -2.1758   17.3946 O.2     1  UNL1       -0.2262
      2 C           5.5833   -2.3846   18.4053 C.2     1  UNL1        0.4052
      3 N           5.9162   -2.9201   19.7663 N.am    1  UNL1       -0.2460
      4 C           4.8277   -3.1288   20.7770 C.3     1  UNL1        0.0968
      5 C           5.1606   -3.6644   22.1380 C.3     1  UNL1        0.0234
      6 C           6.5821   -3.9913   22.4883 C.3     1  UNL1        0.0230
      7 C           7.6706   -3.7825   21.4775 C.3     1  UNL1        0.0234
      8 C           7.3376   -3.2470   20.1165 C.3     1  UNL1        0.0968
      9 O           4.1618   -2.0577   18.0550 O.3     1  UNL1       -0.4295
     10 C           3.7362   -0.6272   17.9052 C.3     1  UNL1        0.2367
     11 C           2.5640   -0.1080   18.6840 C.ar    1  UNL1        0.0213
     12 C           1.9559    1.2168   18.3301 C.ar    1  UNL1       -0.0007
     13 C           0.7838    1.7359   19.1089 C.ar    1  UNL1       -0.0002
     14 C           0.2196    0.9304   20.2415 C.ar    1  UNL1       -0.0000
     15 C           0.8277   -0.3944   20.5953 C.ar    1  UNL1       -0.0002
     16 C           1.9998   -0.9135   19.8166 C.ar    1  UNL1       -0.0007
     17 C           6.9150   -4.5268   23.8493 C.3     1  UNL1        0.0887
     18 N           7.9176   -5.6329   23.9954 N.pl3   1  UNL1       -0.3116
     19 H           8.5893   -5.7845   23.2918 H       1  UNL1        0.1487
     20 C           7.8967   -6.5081   25.2134 C.ar    1  UNL1        0.1825
     21 N           7.6804   -7.9924   25.2291 N.ar    1  UNL1       -0.1256
     22 N           7.7385   -8.4543   26.6550 N.ar    1  UNL1       -0.1374
     23 C           7.9906   -7.2555   27.5207 C.ar    1  UNL1        0.1604
     24 S           8.0884   -6.0526   26.6297 S.2     1  UNL1       -0.0287
@<TRIPOS>BOND
     1     1     2    2
     2     2     9    1
     3     9    10    1
     4    10    11    1
     5    11    12   ar
     6    12    13   ar
     7    13    14   ar
     8    14    15   ar
     9    15    16   ar
    10     2     3   am
    11     3     4    1
    12     4     5    1
    13     5     6    1
    14     6    17    1
    15    17    18    1
    16    18    20    1
    17    20    21   ar
    18    21    22   ar
    19    22    23   ar
    20    23    24   ar
    21     6     7    1
    22     7     8    1
    23    16    11   ar
    24     8     3    1
    25    24    20   ar
    26    18    19    1
@<TRIPOS>MOLECULE
*****
 24 26 0 0 0
SMALL
GASTEIGER

@<TRIPOS>ATOM
      1 O          -0.8157    4.2827   20.9789 O.2     1  UNL1       -0.2262
      2 C           0.0065    3.1576   21.5340 C.2     1  UNL1        0.4052
      3 N          -0.1740    2.7293   22.9601 N.am    1  UNL1       -0.2460
      4 C           0.6483    1.6042   23.5152 C.3     1  UNL1        0.0968
      5 C           0.4678    1.1759   24.9413 C.3     1  UNL1        0.0234
      6 C          -0.5350    1.8728   25.8125 C.3     1  UNL1        0.0230
      7 C          -1.3573    2.9978   25.2575 C.3     1  UNL1        0.0234
      8 C          -1.1767    3.4261   23.8312 C.3     1  UNL1        0.0968
      9 O           1.0094    2.4608   20.6628 O.3     1  UNL1       -0.4295
     10 C           0.6135    1.2326   19.8981 C.3     1  UNL1        0.2367
     11 C           1.6645    0.2734   19.4233 C.ar    1  UNL1        0.0213
     12 C           2.4164    0.5518   18.1557 C.ar    1  UNL1       -0.0007
     13 C           3.4674   -0.4074   17.6810 C.ar    1  UNL1       -0.0002
     14 C           3.7665   -1.6450   18.4740 C.ar    1  UNL1       -0.0000
     15 C           3.0146   -1.9234   19.7417 C.ar    1  UNL1       -0.0002
     16 C           1.9636   -0.9643   20.2163 C.ar    1  UNL1       -0.0007
     17 C          -0.7155    1.4445   27.2386 C.3     1  UNL1        0.0887
     18 N          -0.2468    0.0897   27.6800 N.pl3   1  UNL1       -0.3116
     19 H          -0.6686   -0.7207   27.3133 H       1  UNL1        0.1487
     20 C           0.8647   -0.0303   28.6800 C.ar    1  UNL1        0.1825
     21 N           0.7553    0.2224   30.1546 N.ar    1  UNL1       -0.1256
     22 N           2.1037   -0.0152   30.7670 N.ar    1  UNL1       -0.1374
     23 C           3.0467   -0.4149   29.6710 C.ar    1  UNL1        0.1604
     24 S           2.2809   -0.4242   28.3812 S.2     1  UNL1       -0.0287
@<TRIPOS>BOND
     1     1     2    2
     2     2     9    1
     3     9    10    1
     4    10    11    1
     5    11    12   ar
     6    12    13   ar
     7    13    14   ar
     8    14    15   ar
     9    15    16   ar
    10     2     3   am
    11     3     4    1
    12     4     5    1
    13     5     6    1
    14     6    17    1
    15    17    18    1
    16    18    20    1
    17    20    21   ar
    18    21    22   ar
    19    22    23   ar
    20    23    24   ar
    21     6     7    1
    22     7     8    1
    23    16    11   ar
    24     8     3    1
    25    24    20   ar
    26    18    19    1
@<TRIPOS>MOLECULE
*****
 24 26 0 0 0
SMALL
GASTEIGER

@<TRIPOS>ATOM
      1 O           5.9642   -0.2382   25.1490 O.2     1  UNL1       -0.2262
      2 C           6.2718   -1.5501   24.4902 C.2     1  UNL1        0.4052
      3 N           5.5476   -1.9489   23.2386 N.am    1  UNL1       -0.2460
      4 C           5.8553   -3.2609   22.5798 C.3     1  UNL1        0.0968
      5 C           5.1311   -3.6597   21.3282 C.3     1  UNL1        0.0234
      6 C           4.0991   -2.7465   20.7355 C.3     1  UNL1        0.0230
      7 C           3.7914   -1.4346   21.3943 C.3     1  UNL1        0.0234
      8 C           4.5157   -1.0358   22.6460 C.3     1  UNL1        0.0968
      9 O           7.3038   -2.4633   25.0829 O.3     1  UNL1       -0.4295
     10 C           6.8855   -3.5680   26.0073 C.3     1  UNL1        0.2367
     11 C           7.2743   -4.9852   25.7066 C.ar    1  UNL1        0.0213
     12 C           6.7949   -6.0981   26.5906 C.ar    1  UNL1       -0.0007
     13 C           7.1837   -7.5153   26.2899 C.ar    1  UNL1       -0.0002
     14 C           8.0518   -7.8195   25.1051 C.ar    1  UNL1       -0.0000
     15 C           8.5312   -6.7066   24.2211 C.ar    1  UNL1       -0.0002
     16 C           8.1424   -5.2895   24.5218 C.ar    1  UNL1       -0.0007
     17 C           3.3749   -3.1453   19.4839 C.3     1  UNL1        0.0887
     18 N           4.1067   -3.1883   18.1753 N.pl3   1  UNL1       -0.3116
     19 H           4.0534   -3.9909   17.6076 H       1  UNL1        0.1487
     20 C           4.9197   -2.0085   17.7315 C.ar    1  UNL1        0.1825
     21 N           6.4121   -1.9713   17.5844 N.ar    1  UNL1       -0.1256
     22 N           6.7979   -0.5985   17.1189 N.ar    1  UNL1       -0.1374
     23 C           5.5440    0.2128   16.9783 C.ar    1  UNL1        0.1604
     24 S           4.3832   -0.6587   17.3569 S.2     1  UNL1       -0.0287
@<TRIPOS>BOND
     1     1     2    2
     2     2     9    1
     3     9    10    1
     4    10    11    1
     5    11    12   ar
     6    12    13   ar
     7    13    14   ar
     8    14    15   ar
     9    15    16   ar
    10     2     3   am
    11     3     4    1
    12     4     5    1
    13     5     6    1
    14     6    17    1
    15    17    18    1
    16    18    20    1
    17    20    21   ar
    18    21    22   ar
    19    22    23   ar
    20    23    24   ar
    21     6     7    1
    22     7     8    1
    23    16    11   ar
    24     8     3    1
    25    24    20   ar
    26    18    19    1
@<TRIPOS>MOLECULE
*****
 24 26 0 0 0
SMALL
GASTEIGER

@<TRIPOS>ATOM
      1 O           7.8813   -5.0073   20.9236 O.2     1  UNL1       -0.2262
      2 C           7.1962   -4.3351   22.0764 C.2     1  UNL1        0.4052
      3 N           7.4155   -4.8345   23.4737 N.am    1  UNL1       -0.2460
      4 C           6.7305   -4.1623   24.6265 C.3     1  UNL1        0.0968
      5 C           6.9497   -4.6617   26.0238 C.3     1  UNL1        0.0234
      6 C           7.8540   -5.8332   26.2684 C.3     1  UNL1        0.0230
      7 C           8.5391   -6.5054   25.1156 C.3     1  UNL1        0.0234
      8 C           8.3198   -6.0060   23.7182 C.3     1  UNL1        0.0968
      9 O           6.2919   -3.1636   21.8318 O.3     1  UNL1       -0.4295
     10 C           5.0135   -3.3492   21.0695 C.3     1  UNL1        0.2367
     11 C           3.9504   -2.2921   21.1191 C.ar    1  UNL1        0.0213
     12 C           3.7305   -1.5081   22.3788 C.ar    1  UNL1       -0.0007
     13 C           2.6674   -0.4511   22.4284 C.ar    1  UNL1       -0.0002
     14 C           1.8243   -0.1780   21.2182 C.ar    1  UNL1       -0.0000
     15 C           2.0443   -0.9619   19.9585 C.ar    1  UNL1       -0.0002
     16 C           3.1073   -2.0190   19.9089 C.ar    1  UNL1       -0.0007
     17 C           8.0733   -6.3326   27.6657 C.3     1  UNL1        0.0887
     18 N           6.9202   -6.4179   28.6213 N.pl3   1  UNL1       -0.3116
     19 H           6.2041   -7.0765   28.4710 H       1  UNL1        0.1487
     20 C           6.8582   -5.4997   29.8058 C.ar    1  UNL1        0.1825
     21 N           6.8400   -5.9186   31.2461 N.ar    1  UNL1       -0.1256
     22 N           6.7741   -4.6792   32.0884 N.ar    1  UNL1       -0.1374
     23 C           6.7515   -3.4943   31.1688 C.ar    1  UNL1        0.1604
     24 S           6.8035   -4.0015   29.7580 S.2     1  UNL1       -0.0287
@<TRIPOS>BOND
     1     1     2    2
     2     2     9    1
     3     9    10    1
     4    10    11    1
     5    11    12   ar
     6    12    13   ar
     7    13    14   ar
     8    14    15   ar
     9    15    16   ar
    10     2     3   am
    11     3     4    1
    12     4     5    1
    13     5     6    1
    14     6    17    1
    15    17    18    1
    16    18    20    1
    17    20    21   ar
    18    21    22   ar
    19    22    23   ar
    20    23    24   ar
    21     6     7    1
    22     7     8    1
    23    16    11   ar
    24     8     3    1
    25    24    20   ar
    26    18    19    1
@<TRIPOS>MOLECULE
*****
 24 26 0 0 0
SMALL
GASTEIGER

@<TRIPOS>ATOM
      1 O           9.2723   -3.0957   20.8041 O.2     1  UNL1       -0.2262
      2 C           7.9356   -3.7610   20.6602 C.2     1  UNL1        0.4052
      3 N           6.8522   -3.1020   19.8591 N.am    1  UNL1       -0.2460
      4 C           5.5156   -3.7673   19.7152 C.3     1  UNL1        0.0968
      5 C           4.4321   -3.1083   18.9140 C.3     1  UNL1        0.0234
      6 C           4.6854   -1.7840   18.2567 C.3     1  UNL1        0.0230
      7 C           6.0220   -1.1187   18.4006 C.3     1  UNL1        0.0234
      8 C           7.1055   -1.7777   19.2018 C.3     1  UNL1        0.0968
      9 O           7.6824   -5.0854   21.3176 O.3     1  UNL1       -0.4295
     10 C           8.6386   -5.6055   22.3496 C.3     1  UNL1        0.2367
     11 C           8.1380   -5.9872   23.7112 C.ar    1  UNL1        0.0213
     12 C           8.3453   -7.3819   24.2227 C.ar    1  UNL1       -0.0007
     13 C           7.8447   -7.7635   25.5842 C.ar    1  UNL1       -0.0002
     14 C           7.1369   -6.7504   26.4342 C.ar    1  UNL1       -0.0000
     15 C           6.9297   -5.3556   25.9227 C.ar    1  UNL1       -0.0002
     16 C           7.4302   -4.9740   24.5612 C.ar    1  UNL1       -0.0007
     17 C           3.6020   -1.1250   17.4555 C.3     1  UNL1        0.0887
     18 N           3.1093    0.2388   17.8394 N.pl3   1  UNL1       -0.3116
     19 H           3.5373    1.0411   17.4621 H       1  UNL1        0.1487
     20 C           1.9644    0.3803   18.7981 C.ar    1  UNL1        0.1825
     21 N           1.5149   -0.6488   19.7927 N.ar    1  UNL1       -0.1256
     22 N           0.3406   -0.0895   20.5398 N.ar    1  UNL1       -0.1374
     23 C           0.0643    1.2853   20.0071 C.ar    1  UNL1        0.1604
     24 S           1.0679    1.5756   18.9306 S.2     1  UNL1       -0.0287
@<TRIPOS>BOND
     1     1     2    2
     2     2     9    1
     3     9    10    1
     4    10    11    1
     5    11    12   ar
     6    12    13   ar
     7    13    14   ar
     8    14    15   ar
     9    15    16   ar
    10     2     3   am
    11     3     4    1
    12     4     5    1
    13     5     6    1
    14     6    17    1
    15    17    18    1
    16    18    20    1
    17    20    21   ar
    18    21    22   ar
    19    22    23   ar
    20    23    24   ar
    21     6     7    1
    22     7     8    1
    23    16    11   ar
    24     8     3    1
    25    24    20   ar
    26    18    19    1
