@<TRIPOS>MOLECULE
*****
 30 32 0 0 0
SMALL
GASTEIGER

@<TRIPOS>ATOM
      1 N          -8.2214  -17.2115   22.6716 N.pl3   1  UNL1       -0.3035
      2 C          -9.6356  -17.5082   23.0744 C.ar    1  UNL1        0.0490
      3 C          -9.9207  -18.6018   24.0606 C.ar    1  UNL1        0.0153
      4 C         -11.3349  -18.8985   24.4634 C.ar    1  UNL1        0.0124
      5 C         -12.4638  -18.1015   23.8799 C.ar    1  UNL1        0.0791
      6 C         -12.1786  -17.0079   22.8937 C.ar    1  UNL1        0.0685
      7 CL        -13.3075  -16.2109   22.3103 Cl      1  UNL1       -0.0815
      8 C         -10.7645  -16.7112   22.4910 C.ar    1  UNL1        0.0266
      9 C         -13.8779  -18.3982   24.2827 C.1     1  UNL1        0.1013
     10 N         -15.2921  -18.6948   24.6855 N.1     1  UNL1       -0.1908
     11 C          -7.4396  -18.2189   21.8816 C.3     1  UNL1        0.0947
     12 C          -8.0110  -19.2361   20.9389 C.3     1  UNL1        0.0431
     13 C          -6.8736  -20.0318   20.3704 C.3     1  UNL1        0.0986
     14 N          -5.5991  -19.5063   20.9618 N.am    1  UNL1       -0.2443
     15 C          -4.2175  -20.0124   20.6704 C.2     1  UNL1        0.4048
     16 O          -4.0215  -21.1464   19.7082 O.2     1  UNL1       -0.2262
     17 C          -5.9489  -18.3858   21.8958 C.3     1  UNL1        0.1164
     18 O          -3.0318  -19.3844   21.3410 O.3     1  UNL1       -0.4383
     19 C          -2.3583  -18.1983   20.7171 C.3     1  UNL1        0.1707
     20 C          -1.9541  -18.2389   19.2732 C.3     1  UNL1        0.0474
     21 C          -2.0889  -16.9714   21.5371 C.3     1  UNL1        0.0474
     22 C          -7.5892  -15.9075   23.0587 C.3     1  UNL1        0.1175
     23 C          -4.6976  -15.7366   23.8395 C.3     1  UNL1        0.0308
     24 C          -5.7663  -15.5664   24.8782 C.ar    1  UNL1       -0.0241
     25 C          -5.3892  -15.3108   26.3073 C.ar    1  UNL1       -0.0022
     26 C          -6.4579  -15.1406   27.3461 C.ar    1  UNL1        0.0293
     27 C          -7.9036  -15.2261   26.9557 C.ar    1  UNL1        0.1399
     28 F          -8.9723  -15.0560   27.9944 F       1  UNL1       -0.2042
     29 C          -8.2807  -15.4818   25.5266 C.ar    1  UNL1        0.0267
     30 C          -7.2120  -15.6519   24.4878 C.ar    1  UNL1       -0.0041
@<TRIPOS>BOND
     1    23    24    1
     2    24    25   ar
     3    25    26   ar
     4    26    27   ar
     5    27    28    1
     6    27    29   ar
     7    29    30   ar
     8    30    22    1
     9    22     1    1
    10     1     2    1
    11     2     3   ar
    12     3     4   ar
    13     4     5   ar
    14     5     9    1
    15     9    10    3
    16     5     6   ar
    17     6     7    1
    18     6     8   ar
    19    11     1    1
    20    11    12    1
    21    12    13    1
    22    13    14    1
    23    14    15   am
    24    15    16    2
    25    15    18    1
    26    18    19    1
    27    19    20    1
    28    19    21    1
    29    14    17    1
    30    30    24   ar
    31     8     2   ar
    32    17    11    1
@<TRIPOS>MOLECULE
*****
 30 32 0 0 0
SMALL
GASTEIGER

@<TRIPOS>ATOM
      1 N          -7.8891  -19.0297   21.5670 N.pl3   1  UNL1       -0.3035
      2 C          -8.0629  -18.1746   22.7871 C.ar    1  UNL1        0.0490
      3 C          -9.0048  -18.6011   23.8739 C.ar    1  UNL1        0.0153
      4 C          -9.1786  -17.7460   25.0939 C.ar    1  UNL1        0.0124
      5 C          -8.4106  -16.4644   25.2272 C.ar    1  UNL1        0.0791
      6 C          -7.4687  -16.0380   24.1404 C.ar    1  UNL1        0.0685
      7 CL         -6.7007  -14.7564   24.2737 Cl      1  UNL1       -0.0815
      8 C          -7.2949  -16.8931   22.9204 C.ar    1  UNL1        0.0266
      9 C          -8.5844  -15.6093   26.4473 C.1     1  UNL1        0.1013
     10 N          -8.7582  -14.7542   27.6673 N.1     1  UNL1       -0.1908
     11 C          -6.5349  -19.5725   21.2183 C.3     1  UNL1        0.0947
     12 C          -6.2598  -20.7703   20.3583 C.3     1  UNL1        0.0431
     13 C          -4.7729  -20.9508   20.2768 C.3     1  UNL1        0.0986
     14 N          -4.1290  -19.8646   21.0865 N.am    1  UNL1       -0.2443
     15 C          -2.6551  -19.6652   21.2803 C.2     1  UNL1        0.4048
     16 O          -1.6798  -20.6028   20.6324 O.2     1  UNL1       -0.2262
     17 C          -5.2181  -19.0127   21.6684 C.3     1  UNL1        0.1164
     18 O          -2.1563  -18.5282   22.1220 O.3     1  UNL1       -0.4383
     19 C          -1.8452  -17.2053   21.4871 C.3     1  UNL1        0.1707
     20 C          -0.9156  -17.1376   20.3118 C.3     1  UNL1        0.0474
     21 C          -2.4636  -15.9501   22.0274 C.3     1  UNL1        0.0474
     22 C          -9.0694  -19.3421   20.6957 C.3     1  UNL1        0.1175
     23 C         -11.3970  -20.0595   22.4471 C.3     1  UNL1        0.0308
     24 C         -11.4457  -18.8182   21.6063 C.ar    1  UNL1       -0.0241
     25 C         -12.6580  -17.9357   21.6412 C.ar    1  UNL1       -0.0022
     26 C         -12.7067  -16.6945   20.8004 C.ar    1  UNL1        0.0293
     27 C         -11.5429  -16.3358   19.9246 C.ar    1  UNL1        0.1399
     28 F         -11.5915  -15.0946   19.0838 F       1  UNL1       -0.2042
     29 C         -10.3305  -17.2183   19.8898 C.ar    1  UNL1        0.0267
     30 C         -10.2819  -18.4595   20.7306 C.ar    1  UNL1       -0.0041
@<TRIPOS>BOND
     1    23    24    1
     2    24    25   ar
     3    25    26   ar
     4    26    27   ar
     5    27    28    1
     6    27    29   ar
     7    29    30   ar
     8    30    22    1
     9    22     1    1
    10     1     2    1
    11     2     3   ar
    12     3     4   ar
    13     4     5   ar
    14     5     9    1
    15     9    10    3
    16     5     6   ar
    17     6     7    1
    18     6     8   ar
    19    11     1    1
    20    11    12    1
    21    12    13    1
    22    13    14    1
    23    14    15   am
    24    15    16    2
    25    15    18    1
    26    18    19    1
    27    19    20    1
    28    19    21    1
    29    14    17    1
    30    30    24   ar
    31     8     2   ar
    32    17    11    1
@<TRIPOS>MOLECULE
*****
 30 32 0 0 0
SMALL
GASTEIGER

@<TRIPOS>ATOM
      1 N          -7.8870  -17.9776   22.0890 N.pl3   1  UNL1       -0.3035
      2 C          -7.8192  -17.1811   23.3583 C.ar    1  UNL1        0.0490
      3 C          -7.0592  -15.8883   23.3928 C.ar    1  UNL1        0.0153
      4 C          -6.9914  -15.0918   24.6621 C.ar    1  UNL1        0.0124
      5 C          -7.6837  -15.5881   25.8968 C.ar    1  UNL1        0.0791
      6 C          -8.4437  -16.8808   25.8622 C.ar    1  UNL1        0.0685
      7 CL         -9.1360  -17.3771   27.0970 Cl      1  UNL1       -0.0815
      8 C          -8.5115  -17.6773   24.5930 C.ar    1  UNL1        0.0266
      9 C          -7.6160  -14.7916   27.1660 C.1     1  UNL1        0.1013
     10 N          -7.5483  -13.9951   28.4353 N.1     1  UNL1       -0.1908
     11 C          -6.7028  -18.7848   21.6461 C.3     1  UNL1        0.0947
     12 C          -6.7484  -20.0409   20.8274 C.3     1  UNL1        0.0431
     13 C          -5.3390  -20.5101   20.6194 C.3     1  UNL1        0.0986
     14 N          -4.4222  -19.5439   21.3095 N.am    1  UNL1       -0.2443
     15 C          -2.9254  -19.6291   21.3568 C.2     1  UNL1        0.4048
     16 O          -2.2165  -20.7595   20.6715 O.2     1  UNL1       -0.2262
     17 C          -5.2652  -18.4776   21.9441 C.3     1  UNL1        0.1164
     18 O          -2.1375  -18.5839   22.0895 O.3     1  UNL1       -0.4383
     19 C          -1.7534  -17.3108   21.3956 C.3     1  UNL1        0.1707
     20 C          -2.2939  -15.9989   21.8823 C.3     1  UNL1        0.0474
     21 C          -0.8289  -17.3495   20.2150 C.3     1  UNL1        0.0474
     22 C          -9.1388  -17.9668   21.2627 C.3     1  UNL1        0.1175
     23 C         -10.5820  -20.2856   22.5039 C.3     1  UNL1        0.0308
     24 C         -11.1917  -18.9156   22.5415 C.ar    1  UNL1       -0.0241
     25 C         -12.5230  -18.7050   23.1997 C.ar    1  UNL1       -0.0022
     26 C         -13.1328  -17.3351   23.2373 C.ar    1  UNL1        0.0293
     27 C         -12.4112  -16.1757   22.6167 C.ar    1  UNL1        0.1399
     28 F         -13.0210  -14.8057   22.6543 F       1  UNL1       -0.2042
     29 C         -11.0799  -16.3863   21.9586 C.ar    1  UNL1        0.0267
     30 C         -10.4702  -17.7562   21.9210 C.ar    1  UNL1       -0.0041
@<TRIPOS>BOND
     1    23    24    1
     2    24    25   ar
     3    25    26   ar
     4    26    27   ar
     5    27    28    1
     6    27    29   ar
     7    29    30   ar
     8    30    22    1
     9    22     1    1
    10     1     2    1
    11     2     3   ar
    12     3     4   ar
    13     4     5   ar
    14     5     9    1
    15     9    10    3
    16     5     6   ar
    17     6     7    1
    18     6     8   ar
    19    11     1    1
    20    11    12    1
    21    12    13    1
    22    13    14    1
    23    14    15   am
    24    15    16    2
    25    15    18    1
    26    18    19    1
    27    19    20    1
    28    19    21    1
    29    14    17    1
    30    30    24   ar
    31     8     2   ar
    32    17    11    1
