@<TRIPOS>MOLECULE
*****
 26 29 0 0 0
SMALL
GASTEIGER

@<TRIPOS>ATOM
      1 C          -8.8158  -17.5582   23.6860 C.ar    1  UNL1        0.1382
      2 C          -7.7276  -16.5301   23.7796 C.ar    1  UNL1        0.0369
      3 C          -6.3883  -16.7970   23.1592 C.ar    1  UNL1        0.0043
      4 C          -6.1372  -18.0920   22.4451 C.ar    1  UNL1        0.0153
      5 C          -7.2254  -19.1201   22.3514 C.ar    1  UNL1       -0.0173
      6 C          -8.5647  -18.8532   22.9719 C.ar    1  UNL1        0.0327
      7 C          -6.9743  -20.4151   21.6373 C.3     1  UNL1        0.0312
      8 C          -5.6350  -20.6819   21.0168 C.3     1  UNL1        0.0328
      9 C          -4.5467  -19.6538   21.1105 C.ar    1  UNL1        0.0022
     10 C          -3.2074  -19.9207   20.4900 C.ar    1  UNL1        0.0595
     11 C          -2.1192  -18.8925   20.5836 C.ar    1  UNL1        0.2762
     12 O          -0.7799  -19.1594   19.9631 O.2     1  UNL1       -0.2655
     13 N          -2.3703  -17.5976   21.2977 N.ar    1  UNL1       -0.2146
     14 C          -1.2821  -16.5695   21.3913 C.3     1  UNL1        0.1571
     15 N          -3.7097  -17.3307   21.9182 N.ar    1  UNL1       -0.1671
     16 C          -4.7978  -18.3588   21.8246 C.ar    1  UNL1        0.0968
     17 O         -10.1552  -17.2914   24.3065 O.3     1  UNL1       -0.4754
     18 C         -11.1282  -18.4159   24.5029 C.3     1  UNL1        0.2068
     19 C         -12.5237  -18.3030   23.9644 C.3     1  UNL1        0.0646
     20 C         -12.7461  -17.9092   22.5342 C.3     1  UNL1        0.0759
     21 C         -11.1913  -16.0169   20.3776 C.3     1  UNL1        0.0173
     22 C         -11.0837  -17.5095   20.4796 C.3     1  UNL1        0.0576
     23 C         -10.2426  -18.3944   19.6081 C.3     1  UNL1        0.0174
     24 C         -10.4374  -19.8112   20.0608 C.3     1  UNL1        0.0187
     25 C         -11.3990  -19.8018   21.2120 C.3     1  UNL1        0.0721
     26 N         -11.7984  -18.3793   21.4709 N.3     1  UNL1       -0.2738
@<TRIPOS>BOND
     1    22    21    1
     2    22    23    1
     3    23    24    1
     4    24    25    1
     5    25    26    1
     6    26    20    1
     7    20    19    1
     8    19    18    1
     9    18    17    1
    10    17     1    1
    11     1     2   ar
    12     2     3   ar
    13     3     4   ar
    14     4     5   ar
    15     5     6   ar
    16     5     7    1
    17     7     8    1
    18     8     9    1
    19     9    10   ar
    20    10    11   ar
    21    11    12    2
    22    11    13   ar
    23    13    14    1
    24    13    15   ar
    25    15    16   ar
    26    26    22    1
    27     6     1   ar
    28    16     9   ar
    29    16     4    1
@<TRIPOS>MOLECULE
*****
 26 29 0 0 0
SMALL
GASTEIGER

@<TRIPOS>ATOM
      1 C         -10.5208  -16.9424   21.3033 C.ar    1  UNL1        0.1382
      2 C          -9.4788  -16.3377   22.1969 C.ar    1  UNL1        0.0369
      3 C          -8.0870  -16.8967   22.2109 C.ar    1  UNL1        0.0043
      4 C          -7.7372  -18.0604   21.3315 C.ar    1  UNL1        0.0153
      5 C          -8.7792  -18.6651   20.4380 C.ar    1  UNL1       -0.0173
      6 C         -10.1710  -18.1061   20.4239 C.ar    1  UNL1        0.0327
      7 C          -8.4294  -19.8288   19.5585 C.3     1  UNL1        0.0312
      8 C          -7.0376  -20.3878   19.5726 C.3     1  UNL1        0.0328
      9 C          -5.9954  -19.7831   20.4661 C.ar    1  UNL1        0.0022
     10 C          -4.6036  -20.3421   20.4802 C.ar    1  UNL1        0.0595
     11 C          -3.5615  -19.7374   21.3738 C.ar    1  UNL1        0.2762
     12 O          -2.1696  -20.2965   21.3879 O.2     1  UNL1       -0.2655
     13 N          -3.9113  -18.5737   22.2532 N.ar    1  UNL1       -0.2146
     14 C          -2.8692  -17.9690   23.1468 C.3     1  UNL1        0.1571
     15 N          -5.3032  -18.0147   22.2391 N.ar    1  UNL1       -0.1671
     16 C          -6.3452  -18.6194   21.3456 C.ar    1  UNL1        0.0968
     17 O         -11.9128  -16.3834   21.2892 O.3     1  UNL1       -0.4754
     18 C         -12.7030  -16.3064   22.5618 C.3     1  UNL1        0.2068
     19 C         -13.2710  -17.5551   23.1687 C.3     1  UNL1        0.0646
     20 C         -12.5532  -18.2341   24.2972 C.3     1  UNL1        0.0759
     21 C          -9.6826  -17.9458   25.8222 C.3     1  UNL1        0.0173
     22 C         -10.0038  -18.9149   24.7233 C.3     1  UNL1        0.0576
     23 C          -9.0618  -19.9216   24.1324 C.3     1  UNL1        0.0174
     24 C          -9.7991  -20.6763   23.0661 C.3     1  UNL1        0.0187
     25 C         -11.1967  -20.1361   22.9981 C.3     1  UNL1        0.0721
     26 N         -11.3232  -19.0474   24.0223 N.3     1  UNL1       -0.2738
@<TRIPOS>BOND
     1    22    21    1
     2    22    23    1
     3    23    24    1
     4    24    25    1
     5    25    26    1
     6    26    20    1
     7    20    19    1
     8    19    18    1
     9    18    17    1
    10    17     1    1
    11     1     2   ar
    12     2     3   ar
    13     3     4   ar
    14     4     5   ar
    15     5     6   ar
    16     5     7    1
    17     7     8    1
    18     8     9    1
    19     9    10   ar
    20    10    11   ar
    21    11    12    2
    22    11    13   ar
    23    13    14    1
    24    13    15   ar
    25    15    16   ar
    26    26    22    1
    27     6     1   ar
    28    16     9   ar
    29    16     4    1
@<TRIPOS>MOLECULE
*****
 26 29 0 0 0
SMALL
GASTEIGER

@<TRIPOS>ATOM
      1 C          -9.6863  -16.0653   23.1547 C.ar    1  UNL1        0.1382
      2 C          -9.4801  -17.0543   22.0460 C.ar    1  UNL1        0.0369
      3 C          -8.1190  -17.6361   21.8036 C.ar    1  UNL1        0.0043
      4 C          -6.9641  -17.2289   22.6698 C.ar    1  UNL1        0.0153
      5 C          -7.1703  -16.2399   23.7785 C.ar    1  UNL1       -0.0173
      6 C          -8.5314  -15.6581   24.0210 C.ar    1  UNL1        0.0327
      7 C          -6.0154  -15.8327   24.6448 C.3     1  UNL1        0.0312
      8 C          -4.6543  -16.4145   24.4024 C.3     1  UNL1        0.0328
      9 C          -4.4480  -17.4036   23.2936 C.ar    1  UNL1        0.0022
     10 C          -3.0869  -17.9854   23.0512 C.ar    1  UNL1        0.0595
     11 C          -2.8806  -18.9745   21.9424 C.ar    1  UNL1        0.2762
     12 O          -1.5195  -19.5563   21.7000 O.2     1  UNL1       -0.2655
     13 N          -4.0355  -19.3817   21.0762 N.ar    1  UNL1       -0.2146
     14 C          -3.8293  -20.3707   19.9675 C.3     1  UNL1        0.1571
     15 N          -5.3967  -18.7998   21.3187 N.ar    1  UNL1       -0.1671
     16 C          -5.6029  -17.8108   22.4274 C.ar    1  UNL1        0.0968
     17 O         -11.0475  -15.4834   23.3972 O.3     1  UNL1       -0.4754
     18 C         -12.2069  -15.9073   22.5452 C.3     1  UNL1        0.2068
     19 C         -13.1790  -16.9292   23.0560 C.3     1  UNL1        0.0646
     20 C         -12.9405  -18.3871   22.7957 C.3     1  UNL1        0.0759
     21 C         -10.9032  -20.3971   21.2276 C.3     1  UNL1        0.0173
     22 C         -10.8074  -19.9929   22.6690 C.3     1  UNL1        0.0576
     23 C          -9.7583  -20.4417   23.6426 C.3     1  UNL1        0.0174
     24 C         -10.0463  -19.7951   24.9651 C.3     1  UNL1        0.0187
     25 C         -11.2734  -18.9468   24.8088 C.3     1  UNL1        0.0721
     26 N         -11.7438  -19.0690   23.3897 N.3     1  UNL1       -0.2738
@<TRIPOS>BOND
     1    22    21    1
     2    22    23    1
     3    23    24    1
     4    24    25    1
     5    25    26    1
     6    26    20    1
     7    20    19    1
     8    19    18    1
     9    18    17    1
    10    17     1    1
    11     1     2   ar
    12     2     3   ar
    13     3     4   ar
    14     4     5   ar
    15     5     6   ar
    16     5     7    1
    17     7     8    1
    18     8     9    1
    19     9    10   ar
    20    10    11   ar
    21    11    12    2
    22    11    13   ar
    23    13    14    1
    24    13    15   ar
    25    15    16   ar
    26    26    22    1
    27     6     1   ar
    28    16     9   ar
    29    16     4    1
@<TRIPOS>MOLECULE
*****
 26 29 0 0 0
SMALL
GASTEIGER

@<TRIPOS>ATOM
      1 C          -9.3403  -17.3705   23.7879 C.ar    1  UNL1        0.1382
      2 C          -9.0001  -18.5347   22.9054 C.ar    1  UNL1        0.0369
      3 C          -7.5846  -18.7477   22.4573 C.ar    1  UNL1        0.0043
      4 C          -6.5092  -17.7965   22.8917 C.ar    1  UNL1        0.0153
      5 C          -6.8493  -16.6322   23.7742 C.ar    1  UNL1       -0.0173
      6 C          -8.2649  -16.4192   24.2223 C.ar    1  UNL1        0.0327
      7 C          -5.7740  -15.6810   24.2086 C.3     1  UNL1        0.0312
      8 C          -4.3584  -15.8940   23.7605 C.3     1  UNL1        0.0328
      9 C          -4.0182  -17.0583   22.8779 C.ar    1  UNL1        0.0022
     10 C          -2.6027  -17.2713   22.4299 C.ar    1  UNL1        0.0595
     11 C          -2.2625  -18.4356   21.5473 C.ar    1  UNL1        0.2762
     12 O          -0.8469  -18.6486   21.0992 O.2     1  UNL1       -0.2655
     13 N          -3.3379  -19.3868   21.1129 N.ar    1  UNL1       -0.2146
     14 C          -2.9977  -20.5511   20.2305 C.3     1  UNL1        0.1571
     15 N          -4.7535  -19.1738   21.5611 N.ar    1  UNL1       -0.1671
     16 C          -5.0936  -18.0095   22.4436 C.ar    1  UNL1        0.0968
     17 O         -10.7559  -17.1574   24.2360 O.3     1  UNL1       -0.4754
     18 C         -11.7499  -18.2765   24.1385 C.3     1  UNL1        0.2068
     19 C         -13.0696  -18.0506   23.4622 C.3     1  UNL1        0.0646
     20 C         -13.1205  -17.7847   21.9869 C.3     1  UNL1        0.0759
     21 C         -11.4526  -16.0530   19.7803 C.3     1  UNL1        0.0173
     22 C         -11.2689  -17.5116   20.0785 C.3     1  UNL1        0.0576
     23 C         -10.2863  -18.4302   19.4148 C.3     1  UNL1        0.0174
     24 C         -10.4457  -19.7940   20.0188 C.3     1  UNL1        0.0187
     25 C         -11.5268  -19.7181   21.0558 C.3     1  UNL1        0.0721
     26 N         -12.0356  -18.3075   21.0927 N.3     1  UNL1       -0.2738
@<TRIPOS>BOND
     1    22    21    1
     2    22    23    1
     3    23    24    1
     4    24    25    1
     5    25    26    1
     6    26    20    1
     7    20    19    1
     8    19    18    1
     9    18    17    1
    10    17     1    1
    11     1     2   ar
    12     2     3   ar
    13     3     4   ar
    14     4     5   ar
    15     5     6   ar
    16     5     7    1
    17     7     8    1
    18     8     9    1
    19     9    10   ar
    20    10    11   ar
    21    11    12    2
    22    11    13   ar
    23    13    14    1
    24    13    15   ar
    25    15    16   ar
    26    26    22    1
    27     6     1   ar
    28    16     9   ar
    29    16     4    1
@<TRIPOS>MOLECULE
*****
 26 29 0 0 0
SMALL
GASTEIGER

@<TRIPOS>ATOM
      1 C          -8.4172  -19.5303   22.4393 C.ar    1  UNL1        0.1382
      2 C          -7.7441  -18.2761   22.9125 C.ar    1  UNL1        0.0369
      3 C          -6.3294  -17.9856   22.5073 C.ar    1  UNL1        0.0043
      4 C          -5.5879  -18.9492   21.6289 C.ar    1  UNL1        0.0153
      5 C          -6.2610  -20.2033   21.1557 C.ar    1  UNL1       -0.0173
      6 C          -7.6757  -20.4939   21.5609 C.ar    1  UNL1        0.0327
      7 C          -5.5194  -21.1669   20.2773 C.3     1  UNL1        0.0312
      8 C          -4.1048  -20.8763   19.8721 C.3     1  UNL1        0.0328
      9 C          -3.4316  -19.6221   20.3453 C.ar    1  UNL1        0.0022
     10 C          -2.0169  -19.3316   19.9401 C.ar    1  UNL1        0.0595
     11 C          -1.3437  -18.0773   20.4133 C.ar    1  UNL1        0.2762
     12 O           0.0710  -17.7868   20.0081 O.2     1  UNL1       -0.2655
     13 N          -2.0853  -17.1138   21.2917 N.ar    1  UNL1       -0.2146
     14 C          -1.4121  -15.8596   21.7649 C.3     1  UNL1        0.1571
     15 N          -3.5000  -17.4044   21.6969 N.ar    1  UNL1       -0.1671
     16 C          -4.1731  -18.6585   21.2237 C.ar    1  UNL1        0.0968
     17 O          -9.8320  -19.8209   22.8445 O.3     1  UNL1       -0.4754
     18 C         -10.8353  -20.2454   21.8134 C.3     1  UNL1        0.2068
     19 C         -10.7088  -19.7605   20.3995 C.3     1  UNL1        0.0646
     20 C         -11.1335  -18.3666   20.0438 C.3     1  UNL1        0.0759
     21 C          -9.5604  -15.8303   21.3636 C.3     1  UNL1        0.0173
     22 C         -10.9463  -16.2862   21.7118 C.3     1  UNL1        0.0576
     23 C         -11.8525  -15.6564   22.7277 C.3     1  UNL1        0.0174
     24 C         -13.1357  -16.4330   22.7490 C.3     1  UNL1        0.0187
     25 C         -13.0225  -17.5428   21.7462 C.3     1  UNL1        0.0721
     26 N         -11.6694  -17.4521   21.1051 N.3     1  UNL1       -0.2738
@<TRIPOS>BOND
     1    22    21    1
     2    22    23    1
     3    23    24    1
     4    24    25    1
     5    25    26    1
     6    26    20    1
     7    20    19    1
     8    19    18    1
     9    18    17    1
    10    17     1    1
    11     1     2   ar
    12     2     3   ar
    13     3     4   ar
    14     4     5   ar
    15     5     6   ar
    16     5     7    1
    17     7     8    1
    18     8     9    1
    19     9    10   ar
    20    10    11   ar
    21    11    12    2
    22    11    13   ar
    23    13    14    1
    24    13    15   ar
    25    15    16   ar
    26    26    22    1
    27     6     1   ar
    28    16     9   ar
    29    16     4    1
@<TRIPOS>MOLECULE
*****
 26 29 0 0 0
SMALL
GASTEIGER

@<TRIPOS>ATOM
      1 C          -8.0928  -19.5631   21.1729 C.ar    1  UNL1        0.1382
      2 C          -7.5413  -19.4981   19.7795 C.ar    1  UNL1        0.0369
      3 C          -6.1075  -19.1175   19.5574 C.ar    1  UNL1        0.0043
      4 C          -5.2252  -18.8020   20.7287 C.ar    1  UNL1        0.0153
      5 C          -5.7767  -18.8670   22.1221 C.ar    1  UNL1       -0.0173
      6 C          -7.2105  -19.2475   22.3442 C.ar    1  UNL1        0.0327
      7 C          -4.8944  -18.5514   23.2934 C.3     1  UNL1        0.0312
      8 C          -3.4606  -18.1708   23.0713 C.3     1  UNL1        0.0328
      9 C          -2.9090  -18.1058   21.6779 C.ar    1  UNL1        0.0022
     10 C          -1.4753  -17.7253   21.4558 C.ar    1  UNL1        0.0595
     11 C          -0.9237  -17.6603   20.0623 C.ar    1  UNL1        0.2762
     12 O           0.5101  -17.2797   19.8402 O.2     1  UNL1       -0.2655
     13 N          -1.8060  -17.9758   18.8910 N.ar    1  UNL1       -0.2146
     14 C          -1.2545  -17.9108   17.4976 C.3     1  UNL1        0.1571
     15 N          -3.2399  -18.3564   19.1132 N.ar    1  UNL1       -0.1671
     16 C          -3.7914  -18.4214   20.5066 C.ar    1  UNL1        0.0968
     17 O          -9.5267  -19.9436   21.3951 O.3     1  UNL1       -0.4754
     18 C         -10.5675  -19.5701   20.3816 C.3     1  UNL1        0.2068
     19 C         -11.6818  -18.6395   20.7590 C.3     1  UNL1        0.0646
     20 C         -11.3753  -17.2292   21.1676 C.3     1  UNL1        0.0759
     21 C         -11.5986  -18.4231   24.1964 C.3     1  UNL1        0.0173
     22 C         -10.5209  -17.5141   23.6842 C.3     1  UNL1        0.0576
     23 C          -9.3567  -16.9944   24.4744 C.3     1  UNL1        0.0174
     24 C          -8.5344  -16.1243   23.5705 C.3     1  UNL1        0.0187
     25 C          -9.1905  -16.1064   22.2217 C.3     1  UNL1        0.0721
     26 N         -10.4183  -16.9654   22.2920 N.3     1  UNL1       -0.2738
@<TRIPOS>BOND
     1    22    21    1
     2    22    23    1
     3    23    24    1
     4    24    25    1
     5    25    26    1
     6    26    20    1
     7    20    19    1
     8    19    18    1
     9    18    17    1
    10    17     1    1
    11     1     2   ar
    12     2     3   ar
    13     3     4   ar
    14     4     5   ar
    15     5     6   ar
    16     5     7    1
    17     7     8    1
    18     8     9    1
    19     9    10   ar
    20    10    11   ar
    21    11    12    2
    22    11    13   ar
    23    13    14    1
    24    13    15   ar
    25    15    16   ar
    26    26    22    1
    27     6     1   ar
    28    16     9   ar
    29    16     4    1
@<TRIPOS>MOLECULE
*****
 26 29 0 0 0
SMALL
GASTEIGER

@<TRIPOS>ATOM
      1 C          -7.7904  -19.5179   21.4989 C.ar    1  UNL1        0.1382
      2 C          -7.3181  -19.5019   20.0753 C.ar    1  UNL1        0.0369
      3 C          -5.9082  -19.1008   19.7574 C.ar    1  UNL1        0.0043
      4 C          -4.9705  -18.7158   20.8631 C.ar    1  UNL1        0.0153
      5 C          -5.4428  -18.7318   22.2867 C.ar    1  UNL1       -0.0173
      6 C          -6.8528  -19.1329   22.6046 C.ar    1  UNL1        0.0327
      7 C          -4.5052  -18.3468   23.3924 C.3     1  UNL1        0.0312
      8 C          -3.0952  -17.9457   23.0745 C.3     1  UNL1        0.0328
      9 C          -2.6228  -17.9296   21.6509 C.ar    1  UNL1        0.0022
     10 C          -1.2129  -17.5286   21.3330 C.ar    1  UNL1        0.0595
     11 C          -0.7405  -17.5125   19.9094 C.ar    1  UNL1        0.2762
     12 O           0.6695  -17.1114   19.5915 O.2     1  UNL1       -0.2655
     13 N          -1.6781  -17.8975   18.8037 N.ar    1  UNL1       -0.2146
     14 C          -1.2058  -17.8815   17.3801 C.3     1  UNL1        0.1571
     15 N          -3.0882  -18.2986   19.1216 N.ar    1  UNL1       -0.1671
     16 C          -3.5605  -18.3147   20.5452 C.ar    1  UNL1        0.0968
     17 O          -9.2005  -19.9190   21.8168 O.3     1  UNL1       -0.4754
     18 C          -9.6243  -20.1028   23.2439 C.3     1  UNL1        0.2068
     19 C         -11.0397  -19.8151   23.6490 C.3     1  UNL1        0.0646
     20 C         -11.5139  -18.3965   23.7614 C.3     1  UNL1        0.0759
     21 C          -9.1164  -16.3212   22.9904 C.3     1  UNL1        0.0173
     22 C         -10.3766  -16.5427   22.2075 C.3     1  UNL1        0.0576
     23 C         -10.7559  -15.8492   20.9327 C.3     1  UNL1        0.0174
     24 C         -12.0925  -16.3744   20.4992 C.3     1  UNL1        0.0187
     25 C         -12.5390  -17.3926   21.5062 C.3     1  UNL1        0.0721
     26 N         -11.4786  -17.4966   22.5619 N.3     1  UNL1       -0.2738
@<TRIPOS>BOND
     1    22    21    1
     2    22    23    1
     3    23    24    1
     4    24    25    1
     5    25    26    1
     6    26    20    1
     7    20    19    1
     8    19    18    1
     9    18    17    1
    10    17     1    1
    11     1     2   ar
    12     2     3   ar
    13     3     4   ar
    14     4     5   ar
    15     5     6   ar
    16     5     7    1
    17     7     8    1
    18     8     9    1
    19     9    10   ar
    20    10    11   ar
    21    11    12    2
    22    11    13   ar
    23    13    14    1
    24    13    15   ar
    25    15    16   ar
    26    26    22    1
    27     6     1   ar
    28    16     9   ar
    29    16     4    1
@<TRIPOS>MOLECULE
*****
 26 29 0 0 0
SMALL
GASTEIGER

@<TRIPOS>ATOM
      1 C          -8.3762  -18.9975   23.0577 C.ar    1  UNL1        0.1382
      2 C          -7.4744  -17.8406   23.3712 C.ar    1  UNL1        0.0369
      3 C          -6.1196  -17.7515   22.7338 C.ar    1  UNL1        0.0043
      4 C          -5.6665  -18.8195   21.7828 C.ar    1  UNL1        0.0153
      5 C          -6.5682  -19.9764   21.4693 C.ar    1  UNL1       -0.0173
      6 C          -7.9231  -20.0654   22.1068 C.ar    1  UNL1        0.0327
      7 C          -6.1151  -21.0443   20.5184 C.3     1  UNL1        0.0312
      8 C          -4.7603  -20.9553   19.8810 C.3     1  UNL1        0.0328
      9 C          -3.8584  -19.7983   20.1944 C.ar    1  UNL1        0.0022
     10 C          -2.5036  -19.7093   19.5570 C.ar    1  UNL1        0.0595
     11 C          -1.6017  -18.5523   19.8705 C.ar    1  UNL1        0.2762
     12 O          -0.2469  -18.4633   19.2330 O.2     1  UNL1       -0.2655
     13 N          -2.0548  -17.4844   20.8214 N.ar    1  UNL1       -0.2146
     14 C          -1.1531  -16.3275   21.1349 C.3     1  UNL1        0.1571
     15 N          -3.4098  -17.5735   21.4588 N.ar    1  UNL1       -0.1671
     16 C          -4.3115  -18.7304   21.1454 C.ar    1  UNL1        0.0968
     17 O          -9.7311  -19.0865   23.6952 O.3     1  UNL1       -0.4754
     18 C         -10.5261  -17.8392   23.9446 C.3     1  UNL1        0.2068
     19 C          -9.9340  -16.4972   23.6308 C.3     1  UNL1        0.0646
     20 C          -9.5995  -15.5467   24.7420 C.3     1  UNL1        0.0759
     21 C          -8.4857  -16.5672   27.6346 C.3     1  UNL1        0.0173
     22 C          -7.6745  -15.9029   26.5620 C.3     1  UNL1        0.0576
     23 C          -6.2089  -15.5910   26.6306 C.3     1  UNL1        0.0174
     24 C          -5.8150  -14.9291   25.3434 C.3     1  UNL1        0.0187
     25 C          -7.0373  -14.8320   24.4793 C.3     1  UNL1        0.0721
     26 N          -8.1865  -15.4338   25.2324 N.3     1  UNL1       -0.2738
@<TRIPOS>BOND
     1    22    21    1
     2    22    23    1
     3    23    24    1
     4    24    25    1
     5    25    26    1
     6    26    20    1
     7    20    19    1
     8    19    18    1
     9    18    17    1
    10    17     1    1
    11     1     2   ar
    12     2     3   ar
    13     3     4   ar
    14     4     5   ar
    15     5     6   ar
    16     5     7    1
    17     7     8    1
    18     8     9    1
    19     9    10   ar
    20    10    11   ar
    21    11    12    2
    22    11    13   ar
    23    13    14    1
    24    13    15   ar
    25    15    16   ar
    26    26    22    1
    27     6     1   ar
    28    16     9   ar
    29    16     4    1
@<TRIPOS>MOLECULE
*****
 26 29 0 0 0
SMALL
GASTEIGER

@<TRIPOS>ATOM
      1 C           3.1646   -1.8887   20.5582 C.ar    1  UNL1        0.1382
      2 C           3.9269   -3.1210   20.1708 C.ar    1  UNL1        0.0369
      3 C           4.8666   -3.7603   21.1497 C.ar    1  UNL1        0.0043
      4 C           5.0439   -3.1673   22.5160 C.ar    1  UNL1        0.0153
      5 C           4.2816   -1.9350   22.9034 C.ar    1  UNL1       -0.0173
      6 C           3.3419   -1.2956   21.9246 C.ar    1  UNL1        0.0327
      7 C           4.4590   -1.3419   24.2698 C.3     1  UNL1        0.0312
      8 C           5.3986   -1.9812   25.2487 C.3     1  UNL1        0.0328
      9 C           6.1610   -3.2137   24.8612 C.ar    1  UNL1        0.0022
     10 C           7.1007   -3.8530   25.8401 C.ar    1  UNL1        0.0595
     11 C           7.8631   -5.0854   25.4527 C.ar    1  UNL1        0.2762
     12 O           8.8027   -5.7247   26.4316 O.2     1  UNL1       -0.2655
     13 N           7.6857   -5.6784   24.0863 N.ar    1  UNL1       -0.2146
     14 C           8.4480   -6.9107   23.6989 C.3     1  UNL1        0.1571
     15 N           6.7460   -5.0390   23.1074 N.ar    1  UNL1       -0.1671
     16 C           5.9837   -3.8067   23.4949 C.ar    1  UNL1        0.0968
     17 O           2.2249   -1.2493   19.5793 O.3     1  UNL1       -0.4754
     18 C           2.7189   -0.1731   18.6587 C.3     1  UNL1        0.2068
     19 C           3.5457   -0.5329   17.4598 C.3     1  UNL1        0.0646
     20 C           4.9922   -0.1404   17.4011 C.3     1  UNL1        0.0759
     21 C           5.8397    0.9482   20.3584 C.3     1  UNL1        0.0173
     22 C           6.3714   -0.2828   19.6863 C.3     1  UNL1        0.0576
     23 C           7.3861   -1.2296   20.2555 C.3     1  UNL1        0.0174
     24 C           7.6236   -2.3152   19.2479 C.3     1  UNL1        0.0187
     25 C           6.7558   -2.0393   18.0560 C.3     1  UNL1        0.0721
     26 N           5.9818   -0.7832   18.3269 N.3     1  UNL1       -0.2738
@<TRIPOS>BOND
     1    22    21    1
     2    22    23    1
     3    23    24    1
     4    24    25    1
     5    25    26    1
     6    26    20    1
     7    20    19    1
     8    19    18    1
     9    18    17    1
    10    17     1    1
    11     1     2   ar
    12     2     3   ar
    13     3     4   ar
    14     4     5   ar
    15     5     6   ar
    16     5     7    1
    17     7     8    1
    18     8     9    1
    19     9    10   ar
    20    10    11   ar
    21    11    12    2
    22    11    13   ar
    23    13    14    1
    24    13    15   ar
    25    15    16   ar
    26    26    22    1
    27     6     1   ar
    28    16     9   ar
    29    16     4    1
