@<TRIPOS>MOLECULE
*****
 54 57 0 0 0
SMALL
GASTEIGER

@<TRIPOS>ATOM
      1 C           3.6524   -0.1045   22.3710 C.3     1  UNL1        0.0760
      2 C           4.2543   -1.5264   24.4605 C.2     1  UNL1        0.2404
      3 O           4.1926   -2.7736   23.6295 O.2     1  UNL1       -0.2733
      4 N           3.9843   -0.1918   23.8312 N.am    1  UNL1       -0.3043
      5 H           4.0248    0.6269   24.3766 H       1  UNL1        0.1494
      6 C           4.5862   -1.6137   25.9207 C.3     1  UNL1        0.1511
      7 N           7.5659   -4.1493   26.5856 N.am    1  UNL1       -0.2567
      8 C           9.0037   -4.3353   26.2006 C.3     1  UNL1        0.1168
      9 C           6.7949   -2.9746   26.0607 C.2     1  UNL1        0.3046
     10 O           7.4617   -1.9859   25.1507 O.2     1  UNL1       -0.2526
     11 N           5.3572   -2.7885   26.4457 N.am    1  UNL1       -0.2824
     12 H           4.9195   -3.4374   27.0429 H       1  UNL1        0.1514
     13 C           6.8992   -5.1379   27.4956 C.3     1  UNL1        0.1413
     14 C           6.6681   -3.8428   31.1473 C.ar    1  UNL1        0.0875
     15 N           6.5413   -3.6233   29.6689 N.ar    1  UNL1       -0.2453
     16 C           6.8928   -4.9073   28.9778 C.ar    1  UNL1        0.0858
     17 C           7.2370   -5.9204   30.0291 C.ar    1  UNL1        0.0530
     18 S           7.0981   -5.2626   31.3699 S.2     1  UNL1       -0.0705
     19 C           5.0631   -2.7456   32.8707 C.3     1  UNL1        0.0069
     20 C           6.4103   -2.8218   32.2156 C.3     1  UNL1        0.0465
     21 C           7.4996   -1.8770   32.6286 C.3     1  UNL1        0.0069
     22 C           4.1470   -0.5263   26.8560 C.3     1  UNL1        0.0458
     23 C           3.5118   -0.8773   28.1687 C.3     1  UNL1        0.0674
     24 N           2.0174   -0.9210   28.2908 N.3     1  UNL1       -0.3211
     25 H           1.6383    0.0172   28.1632 H       1  UNL1        0.1189
     26 H           1.7619   -1.2682   29.2153 H       1  UNL1        0.1189
     27 C           2.2465    0.1876   21.9376 C.3     1  UNL1        0.0216
     28 C           1.9364    1.4594   21.2052 C.3     1  UNL1        0.0217
     29 C           0.8505    1.4835   20.1706 C.3     1  UNL1        0.0792
     30 N          -0.5886    1.4753   20.5934 N.am    1  UNL1       -0.2720
     31 C          -1.3667    2.7572   20.6308 C.2     1  UNL1        0.4019
     32 O          -0.7056    4.0473   20.2453 O.2     1  UNL1       -0.2264
     33 H          -1.0225    0.6285   20.8465 H       1  UNL1        0.1527
     34 O          -2.8058    2.7490   21.0536 O.3     1  UNL1       -0.4291
     35 C          -3.3840    3.9336   21.7695 C.3     1  UNL1        0.2447
     36 C          -3.7718    3.8210   23.2141 C.ar    1  UNL1        0.0714
     37 C          -5.1653    3.6507   23.7423 C.ar    1  UNL1        0.1053
     38 N          -5.0889    3.5834   25.2388 N.ar    1  UNL1       -0.2350
     39 C          -3.6481    3.7121   25.6356 C.ar    1  UNL1        0.1343
     40 S          -2.8341    3.8589   24.3843 S.2     1  UNL1       -0.0652
     41 C           1.2038    1.5157   18.7132 C.3     1  UNL1        0.0460
     42 C           2.5922    1.1606   18.2700 C.ar    1  UNL1       -0.0205
     43 C           2.8443   -0.1368   17.5607 C.ar    1  UNL1       -0.0042
     44 C           4.2326   -0.4918   17.1175 C.ar    1  UNL1       -0.0003
     45 C           5.3689    0.4506   17.3836 C.ar    1  UNL1       -0.0000
     46 C           5.1168    1.7480   18.0929 C.ar    1  UNL1       -0.0003
     47 C           3.7285    2.1030   18.5361 C.ar    1  UNL1       -0.0042
     48 C           4.7266   -0.3092   21.3442 C.3     1  UNL1        0.0459
     49 C           4.7400   -1.5567   20.5113 C.ar    1  UNL1       -0.0205
     50 C           6.0337   -2.0731   19.9547 C.ar    1  UNL1       -0.0042
     51 C           6.0470   -3.3205   19.1218 C.ar    1  UNL1       -0.0003
     52 C           4.7666   -4.0515   18.8455 C.ar    1  UNL1       -0.0000
     53 C           3.4730   -3.5351   19.4021 C.ar    1  UNL1       -0.0003
     54 C           3.4597   -2.2877   20.2350 C.ar    1  UNL1       -0.0042
@<TRIPOS>BOND
     1    19    20    1
     2    20    21    1
     3    20    14    1
     4    14    15   ar
     5    15    16   ar
     6    16    13    1
     7    13     7    1
     8     7     8    1
     9     7     9   am
    10     9    10    2
    11     9    11   am
    12    11     6    1
    13     6    22    1
    14    22    23    1
    15    23    24    1
    16     6     2    1
    17     2     3    2
    18     2     4   am
    19     4     1    1
    20     1    27    1
    21    27    28    1
    22    29    28    1
    23    29    41    1
    24    41    42    1
    25    42    43   ar
    26    43    44   ar
    27    44    45   ar
    28    45    46   ar
    29    46    47   ar
    30    29    30    1
    31    30    31   am
    32    31    32    2
    33    31    34    1
    34    34    35    1
    35    35    36    1
    36    36    37   ar
    37    37    38   ar
    38    38    39   ar
    39    39    40   ar
    40     1    48    1
    41    48    49    1
    42    49    50   ar
    43    50    51   ar
    44    51    52   ar
    45    52    53   ar
    46    53    54   ar
    47    16    17   ar
    48    17    18   ar
    49    18    14   ar
    50    47    42   ar
    51    40    36   ar
    52    54    49   ar
    53    11    12    1
    54    24    25    1
    55    24    26    1
    56     4     5    1
    57    30    33    1
@<TRIPOS>MOLECULE
*****
 54 57 0 0 0
SMALL
GASTEIGER

@<TRIPOS>ATOM
      1 C           5.7341   -2.0161   24.3516 C.3     1  UNL1        0.0760
      2 C           6.5881   -2.1694   26.8006 C.2     1  UNL1        0.2404
      3 O           7.6822   -1.1946   26.4800 O.2     1  UNL1       -0.2733
      4 N           5.6140   -2.5801   25.7363 N.am    1  UNL1       -0.3043
      5 H           4.8959   -3.2199   25.9467 H       1  UNL1        0.1494
      6 C           6.4681   -2.7334   28.1853 C.3     1  UNL1        0.1511
      7 N           5.2673   -0.4030   31.1648 N.am    1  UNL1       -0.2567
      8 C           5.8426    0.5914   32.1292 C.3     1  UNL1        0.1168
      9 C           6.1553   -1.0710   30.1572 C.2     1  UNL1        0.3046
     10 O           7.6188   -0.7446   30.1141 O.2     1  UNL1       -0.2526
     11 N           5.5799   -2.0654   29.1928 N.am    1  UNL1       -0.2824
     12 H           4.6195   -2.2797   29.2211 H       1  UNL1        0.1514
     13 C           3.8039   -0.7294   31.2079 C.3     1  UNL1        0.1413
     14 C           0.8512    0.6390   29.0926 C.ar    1  UNL1        0.0875
     15 N           1.4512   -0.4114   29.9795 N.ar    1  UNL1       -0.2453
     16 C           2.8416    0.0230   30.3371 C.ar    1  UNL1        0.0858
     17 C           3.1010    1.3418   29.6712 C.ar    1  UNL1        0.0530
     18 S           1.8708    1.7226   28.9020 S.2     1  UNL1       -0.0705
     19 C          -1.4744   -0.4954   28.8580 C.3     1  UNL1        0.0069
     20 C          -0.5266    0.6108   28.5001 C.3     1  UNL1        0.0465
     21 C          -0.9566    1.6888   27.5499 C.3     1  UNL1        0.0069
     22 C           7.2361   -3.9654   28.5625 C.3     1  UNL1        0.0458
     23 C           6.5074   -5.2442   28.8518 C.3     1  UNL1        0.0674
     24 N           5.5670   -5.8184   27.8340 N.3     1  UNL1       -0.3211
     25 H           4.7711   -5.1917   27.7147 H       1  UNL1        0.1189
     26 H           5.2374   -6.7299   28.1517 H       1  UNL1        0.1189
     27 C           5.0007   -0.7593   23.9875 C.3     1  UNL1        0.0216
     28 C           3.5096   -0.7811   23.8261 C.3     1  UNL1        0.0217
     29 C           2.8633    0.0005   22.7208 C.3     1  UNL1        0.0792
     30 N           2.5514    1.4549   22.9139 N.am    1  UNL1       -0.2720
     31 C           1.3624    1.8649   23.7314 C.2     1  UNL1        0.4019
     32 O           0.4853    0.8204   24.3557 O.2     1  UNL1       -0.2264
     33 H           3.1270    2.1404   22.5041 H       1  UNL1        0.1527
     34 O           1.0504    3.3193   23.9245 O.3     1  UNL1       -0.4291
     35 C           0.4794    4.1206   22.7924 C.3     1  UNL1        0.2447
     36 C          -0.8528    3.7519   22.2097 C.ar    1  UNL1        0.0714
     37 C          -1.0785    3.0062   20.9279 C.ar    1  UNL1        0.1053
     38 N          -2.5583    2.8576   20.7325 N.ar    1  UNL1       -0.2350
     39 C          -3.2471    3.5116   21.8934 C.ar    1  UNL1        0.1343
     40 S          -2.1930    4.0643   22.8064 S.2     1  UNL1       -0.0652
     41 C           2.5290   -0.6724   21.4226 C.3     1  UNL1        0.0460
     42 C           3.3682   -0.4146   20.2063 C.ar    1  UNL1       -0.0205
     43 C           4.7283    0.2014   20.3503 C.ar    1  UNL1       -0.0042
     44 C           5.5674    0.4592   19.1340 C.ar    1  UNL1       -0.0003
     45 C           5.0466    0.1009   17.7738 C.ar    1  UNL1       -0.0000
     46 C           3.6865   -0.5152   17.6298 C.ar    1  UNL1       -0.0003
     47 C           2.8474   -0.7729   18.8460 C.ar    1  UNL1       -0.0042
     48 C           6.5876   -2.7089   23.3310 C.3     1  UNL1        0.0459
     49 C           6.0114   -3.0749   21.9953 C.ar    1  UNL1       -0.0205
     50 C           4.6659   -3.7332   21.9139 C.ar    1  UNL1       -0.0042
     51 C           4.0897   -4.0992   20.5782 C.ar    1  UNL1       -0.0003
     52 C           4.8589   -3.8070   19.3240 C.ar    1  UNL1       -0.0000
     53 C           6.2043   -3.1487   19.4055 C.ar    1  UNL1       -0.0003
     54 C           6.7805   -2.7827   20.7412 C.ar    1  UNL1       -0.0042
@<TRIPOS>BOND
     1    19    20    1
     2    20    21    1
     3    20    14    1
     4    14    15   ar
     5    15    16   ar
     6    16    13    1
     7    13     7    1
     8     7     8    1
     9     7     9   am
    10     9    10    2
    11     9    11   am
    12    11     6    1
    13     6    22    1
    14    22    23    1
    15    23    24    1
    16     6     2    1
    17     2     3    2
    18     2     4   am
    19     4     1    1
    20     1    27    1
    21    27    28    1
    22    29    28    1
    23    29    41    1
    24    41    42    1
    25    42    43   ar
    26    43    44   ar
    27    44    45   ar
    28    45    46   ar
    29    46    47   ar
    30    29    30    1
    31    30    31   am
    32    31    32    2
    33    31    34    1
    34    34    35    1
    35    35    36    1
    36    36    37   ar
    37    37    38   ar
    38    38    39   ar
    39    39    40   ar
    40     1    48    1
    41    48    49    1
    42    49    50   ar
    43    50    51   ar
    44    51    52   ar
    45    52    53   ar
    46    53    54   ar
    47    16    17   ar
    48    17    18   ar
    49    18    14   ar
    50    47    42   ar
    51    40    36   ar
    52    54    49   ar
    53    11    12    1
    54    24    25    1
    55    24    26    1
    56     4     5    1
    57    30    33    1
@<TRIPOS>MOLECULE
*****
 54 57 0 0 0
SMALL
GASTEIGER

@<TRIPOS>ATOM
      1 C           2.5434   -0.0264   21.7767 C.3     1  UNL1        0.0760
      2 C           0.7901    1.8838   21.6112 C.2     1  UNL1        0.2404
      3 O          -0.2114    0.9163   21.0536 O.2     1  UNL1       -0.2733
      4 N           2.1675    1.4125   21.9728 N.am    1  UNL1       -0.3043
      5 H           2.8248    2.0475   22.3388 H       1  UNL1        0.1494
      6 C           0.4143    3.3227   21.8072 C.3     1  UNL1        0.1511
      7 N          -2.2380    4.1044   24.6541 N.am    1  UNL1       -0.2567
      8 C          -3.7142    3.9852   24.8923 C.3     1  UNL1        0.1168
      9 C          -1.6499    3.6539   23.3498 C.2     1  UNL1        0.3046
     10 O          -2.5381    3.0842   22.2836 O.2     1  UNL1       -0.2526
     11 N          -0.1738    3.7732   23.1116 N.am    1  UNL1       -0.2824
     12 H           0.4091    4.1472   23.8113 H       1  UNL1        0.1514
     13 C          -1.3499    4.6742   25.7202 C.3     1  UNL1        0.1413
     14 C          -0.2322    1.8077   28.0865 C.ar    1  UNL1        0.0875
     15 N          -0.9850    2.2958   26.8844 N.ar    1  UNL1       -0.2453
     16 C          -0.7771    3.7775   26.7775 C.ar    1  UNL1        0.0858
     17 C           0.1042    4.2051   27.9136 C.ar    1  UNL1        0.0530
     18 S           0.4410    2.9877   28.7226 S.2     1  UNL1       -0.0705
     19 C           1.1671   -0.2668   28.7853 C.3     1  UNL1        0.0069
     20 C          -0.1644    0.3887   28.5681 C.3     1  UNL1        0.0465
     21 C          -1.4282   -0.3748   28.8323 C.3     1  UNL1        0.0069
     22 C           0.6264    4.3110   20.6990 C.3     1  UNL1        0.0458
     23 C          -0.4592    4.5541   19.6929 C.3     1  UNL1        0.0674
     24 N          -1.5148    3.5137   19.4623 N.3     1  UNL1       -0.3211
     25 H          -1.0884    2.6811   19.0555 H       1  UNL1        0.1189
     26 H          -2.2203    3.8809   18.8237 H       1  UNL1        0.1189
     27 C           2.9848   -0.8526   22.9482 C.3     1  UNL1        0.0216
     28 C           4.4450   -0.9863   23.2639 C.3     1  UNL1        0.0217
     29 C           5.0133   -2.3249   23.6321 C.3     1  UNL1        0.0792
     30 N           5.9057   -2.4569   24.8304 N.am    1  UNL1       -0.2720
     31 C           5.3758   -2.1434   26.1983 C.2     1  UNL1        0.4019
     32 O           3.9536   -1.6979   26.3678 O.2     1  UNL1       -0.2264
     33 H           6.8392   -2.7493   24.7192 H       1  UNL1        0.1527
     34 O           6.2683   -2.2754   27.3967 O.3     1  UNL1       -0.4291
     35 C           6.8271   -3.6160   27.7717 C.3     1  UNL1        0.2447
     36 C           6.8176   -4.0583   29.2049 C.ar    1  UNL1        0.0714
     37 C           6.5758   -3.1805   30.3970 C.ar    1  UNL1        0.1053
     38 N           6.6570   -4.0357   31.6266 N.ar    1  UNL1       -0.2350
     39 C           6.9489   -5.4421   31.1945 C.ar    1  UNL1        0.1343
     40 S           7.0482   -5.4561   29.6979 S.2     1  UNL1       -0.0652
     41 C           4.6890   -3.5314   22.8018 C.3     1  UNL1        0.0460
     42 C           4.9482   -3.5168   21.3244 C.ar    1  UNL1       -0.0205
     43 C           6.2125   -2.9115   20.7907 C.ar    1  UNL1       -0.0042
     44 C           6.4716   -2.8970   19.3133 C.ar    1  UNL1       -0.0003
     45 C           5.4664   -3.4879   18.3697 C.ar    1  UNL1       -0.0000
     46 C           4.2021   -4.0932   18.9035 C.ar    1  UNL1       -0.0003
     47 C           3.9430   -4.1077   20.3808 C.ar    1  UNL1       -0.0042
     48 C           2.4778   -0.6390   20.4090 C.3     1  UNL1        0.0459
     49 C           3.5298   -0.3138   19.3904 C.ar    1  UNL1       -0.0205
     50 C           3.3042   -0.6495   17.9459 C.ar    1  UNL1       -0.0042
     51 C           4.3561   -0.3244   16.9272 C.ar    1  UNL1       -0.0003
     52 C           5.6336    0.3365   17.3531 C.ar    1  UNL1       -0.0000
     53 C           5.8592    0.6722   18.7975 C.ar    1  UNL1       -0.0003
     54 C           4.8072    0.3470   19.8161 C.ar    1  UNL1       -0.0042
@<TRIPOS>BOND
     1    19    20    1
     2    20    21    1
     3    20    14    1
     4    14    15   ar
     5    15    16   ar
     6    16    13    1
     7    13     7    1
     8     7     8    1
     9     7     9   am
    10     9    10    2
    11     9    11   am
    12    11     6    1
    13     6    22    1
    14    22    23    1
    15    23    24    1
    16     6     2    1
    17     2     3    2
    18     2     4   am
    19     4     1    1
    20     1    27    1
    21    27    28    1
    22    29    28    1
    23    29    41    1
    24    41    42    1
    25    42    43   ar
    26    43    44   ar
    27    44    45   ar
    28    45    46   ar
    29    46    47   ar
    30    29    30    1
    31    30    31   am
    32    31    32    2
    33    31    34    1
    34    34    35    1
    35    35    36    1
    36    36    37   ar
    37    37    38   ar
    38    38    39   ar
    39    39    40   ar
    40     1    48    1
    41    48    49    1
    42    49    50   ar
    43    50    51   ar
    44    51    52   ar
    45    52    53   ar
    46    53    54   ar
    47    16    17   ar
    48    17    18   ar
    49    18    14   ar
    50    47    42   ar
    51    40    36   ar
    52    54    49   ar
    53    11    12    1
    54    24    25    1
    55    24    26    1
    56     4     5    1
    57    30    33    1
@<TRIPOS>MOLECULE
*****
 54 57 0 0 0
SMALL
GASTEIGER

@<TRIPOS>ATOM
      1 C           4.5461   -2.3230   23.5580 C.3     1  UNL1        0.0760
      2 C           5.8942   -2.3205   25.7790 C.2     1  UNL1        0.2404
      3 O           7.1753   -2.2593   25.0013 O.2     1  UNL1       -0.2733
      4 N           4.5795   -2.3523   25.0574 N.am    1  UNL1       -0.3043
      5 H           3.7386   -2.3924   25.5678 H       1  UNL1        0.1494
      6 C           5.9276   -2.3497   27.2784 C.3     1  UNL1        0.1511
      7 N           3.9749    0.3541   29.4293 N.am    1  UNL1       -0.2567
      8 C           4.1976    1.7212   30.0050 C.3     1  UNL1        0.1168
      9 C           5.0625   -0.3143   28.6417 C.2     1  UNL1        0.3046
     10 O           6.3729    0.3845   28.4298 O.2     1  UNL1       -0.2526
     11 N           4.8399   -1.6814   28.0660 N.am    1  UNL1       -0.2824
     12 H           3.9799   -2.1400   28.2050 H       1  UNL1        0.1514
     13 C           2.6647   -0.3446   29.6411 C.3     1  UNL1        0.1413
     14 C           0.0123    1.1281   27.2200 C.ar    1  UNL1        0.0875
     15 N           1.4401    0.9230   27.6314 N.ar    1  UNL1       -0.2453
     16 C           1.4476    0.0980   28.8841 C.ar    1  UNL1        0.0858
     17 C           0.0244   -0.2069   29.2469 C.ar    1  UNL1        0.0530
     18 S          -0.8627    0.4298   28.2184 S.2     1  UNL1       -0.0705
     19 C          -1.5199    2.9452   26.1710 C.3     1  UNL1        0.0069
     20 C          -0.4580    1.8965   26.0207 C.3     1  UNL1        0.0465
     21 C           0.1336    1.6163   24.6711 C.3     1  UNL1        0.0069
     22 C           7.0486   -3.0473   27.9901 C.3     1  UNL1        0.0458
     23 C           6.9378   -3.3418   29.4567 C.3     1  UNL1        0.0674
     24 N           8.1324   -3.8415   30.2137 N.3     1  UNL1       -0.3211
     25 H           8.3880   -4.7681   29.8725 H       1  UNL1        0.1189
     26 H           7.9073   -3.8951   31.2072 H       1  UNL1        0.1189
     27 C           4.2473   -1.0408   22.8394 C.3     1  UNL1        0.0216
     28 C           2.8275   -0.5844   22.6787 C.3     1  UNL1        0.0217
     29 C           2.3918    0.0767   21.4046 C.3     1  UNL1        0.0792
     30 N           1.8282    1.4664   21.4354 N.am    1  UNL1       -0.2720
     31 C           0.4089    1.7096   21.0150 C.2     1  UNL1        0.4019
     32 O          -0.4466    0.5631   20.5637 O.2     1  UNL1       -0.2264
     33 H           2.3897    2.2189   21.7316 H       1  UNL1        0.1527
     34 O          -0.1547    3.0993   21.0458 O.3     1  UNL1       -0.4291
     35 C          -1.4992    3.3769   20.4416 C.3     1  UNL1        0.2447
     36 C          -2.7145    3.4509   21.3178 C.ar    1  UNL1        0.0714
     37 C          -2.7233    3.7320   22.7912 C.ar    1  UNL1        0.1053
     38 N          -4.1486    3.7115   23.2585 N.ar    1  UNL1       -0.2350
     39 C          -5.0206    3.4178   22.0739 C.ar    1  UNL1        0.1343
     40 S          -4.1342    3.2567   20.8745 S.2     1  UNL1       -0.0652
     41 C           2.5198   -0.6520   20.0997 C.3     1  UNL1        0.0460
     42 C           3.6090   -0.2812   19.1373 C.ar    1  UNL1       -0.0205
     43 C           3.4575   -0.5910   17.6775 C.ar    1  UNL1       -0.0042
     44 C           4.5467   -0.2202   16.7152 C.ar    1  UNL1       -0.0003
     45 C           5.7874    0.4604   17.2126 C.ar    1  UNL1       -0.0000
     46 C           5.9389    0.7702   18.6724 C.ar    1  UNL1       -0.0003
     47 C           4.8497    0.3994   19.6348 C.ar    1  UNL1       -0.0042
     48 C           4.8115   -3.5761   22.7773 C.3     1  UNL1        0.0459
     49 C           5.0648   -3.5003   21.3008 C.ar    1  UNL1       -0.0205
     50 C           6.3313   -2.8814   20.7879 C.ar    1  UNL1       -0.0042
     51 C           6.5846   -2.8057   19.3114 C.ar    1  UNL1       -0.0003
     52 C           5.5713   -3.3488   18.3477 C.ar    1  UNL1       -0.0000
     53 C           4.3049   -3.9676   18.8607 C.ar    1  UNL1       -0.0003
     54 C           4.0516   -4.0434   20.3372 C.ar    1  UNL1       -0.0042
@<TRIPOS>BOND
     1    19    20    1
     2    20    21    1
     3    20    14    1
     4    14    15   ar
     5    15    16   ar
     6    16    13    1
     7    13     7    1
     8     7     8    1
     9     7     9   am
    10     9    10    2
    11     9    11   am
    12    11     6    1
    13     6    22    1
    14    22    23    1
    15    23    24    1
    16     6     2    1
    17     2     3    2
    18     2     4   am
    19     4     1    1
    20     1    27    1
    21    27    28    1
    22    29    28    1
    23    29    41    1
    24    41    42    1
    25    42    43   ar
    26    43    44   ar
    27    44    45   ar
    28    45    46   ar
    29    46    47   ar
    30    29    30    1
    31    30    31   am
    32    31    32    2
    33    31    34    1
    34    34    35    1
    35    35    36    1
    36    36    37   ar
    37    37    38   ar
    38    38    39   ar
    39    39    40   ar
    40     1    48    1
    41    48    49    1
    42    49    50   ar
    43    50    51   ar
    44    51    52   ar
    45    52    53   ar
    46    53    54   ar
    47    16    17   ar
    48    17    18   ar
    49    18    14   ar
    50    47    42   ar
    51    40    36   ar
    52    54    49   ar
    53    11    12    1
    54    24    25    1
    55    24    26    1
    56     4     5    1
    57    30    33    1
@<TRIPOS>MOLECULE
*****
 54 57 0 0 0
SMALL
GASTEIGER

@<TRIPOS>ATOM
      1 C           3.6476   -0.1251   22.4946 C.3     1  UNL1        0.0760
      2 C           4.3629   -1.5453   24.5493 C.2     1  UNL1        0.2404
      3 O           4.2873   -2.7898   23.7153 O.2     1  UNL1       -0.2733
      4 N           4.0430   -0.2129   23.9389 N.am    1  UNL1       -0.3043
      5 H           4.0926    0.6039   24.4863 H       1  UNL1        0.1494
      6 C           4.7583   -1.6331   25.9935 C.3     1  UNL1        0.1511
      7 N           7.5725   -4.3696   26.5783 N.am    1  UNL1       -0.2567
      8 C           8.9764   -4.6639   26.1399 C.3     1  UNL1        0.1168
      9 C           6.8674   -3.1486   26.0667 C.2     1  UNL1        0.3046
     10 O           7.5662   -2.2217   25.1167 O.2     1  UNL1       -0.2526
     11 N           5.4634   -2.8543   26.5052 N.am    1  UNL1       -0.2824
     12 H           5.0047   -3.4625   27.1287 H       1  UNL1        0.1514
     13 C           6.8736   -5.2964   27.5284 C.3     1  UNL1        0.1413
     14 C           6.7004   -3.8704   31.1342 C.ar    1  UNL1        0.0875
     15 N           6.5520   -3.7038   29.6510 N.ar    1  UNL1       -0.2453
     16 C           6.8900   -5.0128   29.0013 C.ar    1  UNL1        0.0858
     17 C           7.2473   -5.9886   30.0831 C.ar    1  UNL1        0.0530
     18 S           7.1301   -5.2826   31.4013 S.2     1  UNL1       -0.0705
     19 C           7.5517   -1.8412   32.5154 C.3     1  UNL1        0.0069
     20 C           6.4611   -2.8110   32.1689 C.3     1  UNL1        0.0465
     21 C           5.1313   -2.7214   32.8569 C.3     1  UNL1        0.0069
     22 C           4.4486   -0.4999   26.9262 C.3     1  UNL1        0.0458
     23 C           4.8221   -0.5979   28.3756 C.3     1  UNL1        0.0674
     24 N           6.2507   -0.8327   28.7678 N.3     1  UNL1       -0.3211
     25 H           6.5418   -1.7584   28.4535 H       1  UNL1        0.1189
     26 H           6.3387   -0.7749   29.7824 H       1  UNL1        0.1189
     27 C           2.2081    0.0713   22.1218 C.3     1  UNL1        0.0216
     28 C           1.6416    1.4565   22.0214 C.3     1  UNL1        0.0217
     29 C           1.0516    1.9337   20.7274 C.3     1  UNL1        0.0792
     30 N          -0.4193    1.7850   20.4738 N.am    1  UNL1       -0.2720
     31 C          -1.3619    2.8863   20.8592 C.2     1  UNL1        0.4019
     32 O          -0.8337    4.1363   21.4983 O.2     1  UNL1       -0.2264
     33 H          -0.7660    0.9646   20.0544 H       1  UNL1        0.1527
     34 O          -2.8328    2.7376   20.6056 O.3     1  UNL1       -0.4291
     35 C          -3.7942    3.7521   21.1503 C.3     1  UNL1        0.2447
     36 C          -5.0735    4.0399   20.4219 C.ar    1  UNL1        0.0714
     37 C          -5.5483    3.3605   19.1717 C.ar    1  UNL1        0.1053
     38 N          -6.8708    3.9583   18.7929 N.ar    1  UNL1       -0.2350
     39 C          -7.2134    5.0072   19.8090 C.ar    1  UNL1        0.1343
     40 S          -6.1026    5.0576   20.8158 S.2     1  UNL1       -0.0652
     41 C           1.9325    2.5595   19.6871 C.3     1  UNL1        0.0460
     42 C           2.8267    1.6985   18.8448 C.ar    1  UNL1       -0.0205
     43 C           4.2566    2.0935   18.6233 C.ar    1  UNL1       -0.0042
     44 C           5.1506    1.2325   17.7811 C.ar    1  UNL1       -0.0003
     45 C           4.6147   -0.0234   17.1604 C.ar    1  UNL1       -0.0000
     46 C           3.1847   -0.4184   17.3819 C.ar    1  UNL1       -0.0003
     47 C           2.2907    0.4425   18.2241 C.ar    1  UNL1       -0.0042
     48 C           4.6918   -0.2336   21.4232 C.3     1  UNL1        0.0459
     49 C           4.7439   -1.4501   20.5472 C.ar    1  UNL1       -0.0205
     50 C           6.0242   -1.8269   19.8623 C.ar    1  UNL1       -0.0042
     51 C           6.0762   -3.0434   18.9862 C.ar    1  UNL1       -0.0003
     52 C           4.8480   -3.8831   18.7951 C.ar    1  UNL1       -0.0000
     53 C           3.5678   -3.5063   19.4800 C.ar    1  UNL1       -0.0003
     54 C           3.5158   -2.2898   20.3561 C.ar    1  UNL1       -0.0042
@<TRIPOS>BOND
     1    19    20    1
     2    20    21    1
     3    20    14    1
     4    14    15   ar
     5    15    16   ar
     6    16    13    1
     7    13     7    1
     8     7     8    1
     9     7     9   am
    10     9    10    2
    11     9    11   am
    12    11     6    1
    13     6    22    1
    14    22    23    1
    15    23    24    1
    16     6     2    1
    17     2     3    2
    18     2     4   am
    19     4     1    1
    20     1    27    1
    21    27    28    1
    22    29    28    1
    23    29    41    1
    24    41    42    1
    25    42    43   ar
    26    43    44   ar
    27    44    45   ar
    28    45    46   ar
    29    46    47   ar
    30    29    30    1
    31    30    31   am
    32    31    32    2
    33    31    34    1
    34    34    35    1
    35    35    36    1
    36    36    37   ar
    37    37    38   ar
    38    38    39   ar
    39    39    40   ar
    40     1    48    1
    41    48    49    1
    42    49    50   ar
    43    50    51   ar
    44    51    52   ar
    45    52    53   ar
    46    53    54   ar
    47    16    17   ar
    48    17    18   ar
    49    18    14   ar
    50    47    42   ar
    51    40    36   ar
    52    54    49   ar
    53    11    12    1
    54    24    25    1
    55    24    26    1
    56     4     5    1
    57    30    33    1
@<TRIPOS>MOLECULE
*****
 54 57 0 0 0
SMALL
GASTEIGER

@<TRIPOS>ATOM
      1 C           2.9322   -0.5972   22.9557 C.3     1  UNL1        0.0760
      2 C           2.9390    1.5689   24.3902 C.2     1  UNL1        0.2404
      3 O           4.4148    1.7138   24.1645 O.2     1  UNL1       -0.2733
      4 N           2.1977    0.4134   23.7858 N.am    1  UNL1       -0.3043
      5 H           1.2291    0.3183   23.9339 H       1  UNL1        0.1494
      6 C           2.2045    2.5795   25.2203 C.3     1  UNL1        0.1511
      7 N           0.3021    1.1333   28.3889 N.am    1  UNL1       -0.2567
      8 C          -0.9090    0.3066   28.7046 C.3     1  UNL1        0.1168
      9 C           0.6478    1.4430   26.9625 C.2     1  UNL1        0.3046
     10 O          -0.2177    0.9260   25.8518 O.2     1  UNL1       -0.2526
     11 N           1.8589    2.2698   26.6468 N.am    1  UNL1       -0.2824
     12 H           2.4269    2.6091   27.3758 H       1  UNL1        0.1514
     13 C           1.1676    1.6503   29.4995 C.3     1  UNL1        0.1413
     14 C           3.5158   -0.4208   31.7935 C.ar    1  UNL1        0.0875
     15 N           2.3970    0.5610   31.6084 N.ar    1  UNL1       -0.2453
     16 C           2.1875    0.7528   30.1356 C.ar    1  UNL1        0.0858
     17 C           3.1768   -0.1105   29.4103 C.ar    1  UNL1        0.0530
     18 S           3.9978   -0.8358   30.4350 S.2     1  UNL1       -0.0705
     19 C           4.3380    0.0766   34.2073 C.3     1  UNL1        0.0069
     20 C           4.0576   -0.9029   33.1065 C.3     1  UNL1        0.0465
     21 C           4.3190   -2.3646   33.3187 C.3     1  UNL1        0.0069
     22 C           1.8155    3.8998   24.6241 C.3     1  UNL1        0.0458
     23 C           0.4788    4.0593   23.9625 C.3     1  UNL1        0.0674
     24 N          -0.2334    2.8596   23.4118 N.3     1  UNL1       -0.3211
     25 H           0.2992    2.4770   22.6305 H       1  UNL1        0.1189
     26 H          -1.1614    3.1336   23.0890 H       1  UNL1        0.1189
     27 C           4.0975   -1.3414   23.5374 C.3     1  UNL1        0.0216
     28 C           4.2952   -2.7935   23.2176 C.3     1  UNL1        0.0217
     29 C           5.6174   -3.4479   23.4888 C.3     1  UNL1        0.0792
     30 N           6.0622   -3.6828   24.9019 N.am    1  UNL1       -0.2720
     31 C           6.9662   -2.6948   25.5778 C.2     1  UNL1        0.4019
     32 O           7.4253   -1.4719   24.8405 O.2     1  UNL1       -0.2264
     33 H           5.7608   -4.4855   25.3859 H       1  UNL1        0.1527
     34 O           7.4109   -2.9297   26.9909 O.3     1  UNL1       -0.4291
     35 C           6.3971   -3.0028   28.0940 C.3     1  UNL1        0.2447
     36 C           6.6225   -3.9186   29.2603 C.ar    1  UNL1        0.0714
     37 C           6.6824   -5.4164   29.2066 C.ar    1  UNL1        0.1053
     38 N           6.9244   -5.9210   30.5983 N.ar    1  UNL1       -0.2350
     39 C           7.0142   -4.7349   31.5122 C.ar    1  UNL1        0.1343
     40 S           6.8275   -3.4974   30.6853 S.2     1  UNL1       -0.0652
     41 C           6.4948   -3.8674   22.3468 C.3     1  UNL1        0.0460
     42 C           6.1159   -3.5114   20.9397 C.ar    1  UNL1       -0.0205
     43 C           6.9773   -2.5752   20.1451 C.ar    1  UNL1       -0.0042
     44 C           6.5984   -2.2192   18.7381 C.ar    1  UNL1       -0.0003
     45 C           5.3581   -2.7994   18.1258 C.ar    1  UNL1       -0.0000
     46 C           4.4967   -3.7356   18.9204 C.ar    1  UNL1       -0.0003
     47 C           4.8756   -4.0915   20.3274 C.ar    1  UNL1       -0.0042
     48 C           2.5015   -0.8637   21.5437 C.3     1  UNL1        0.0459
     49 C           3.2521   -0.2459   20.4014 C.ar    1  UNL1       -0.0205
     50 C           4.5403    0.4796   20.6553 C.ar    1  UNL1       -0.0042
     51 C           5.2909    1.0974   19.5130 C.ar    1  UNL1       -0.0003
     52 C           4.7533    0.9898   18.1167 C.ar    1  UNL1       -0.0000
     53 C           3.4652    0.2644   17.8628 C.ar    1  UNL1       -0.0003
     54 C           2.7146   -0.3534   19.0052 C.ar    1  UNL1       -0.0042
@<TRIPOS>BOND
     1    19    20    1
     2    20    21    1
     3    20    14    1
     4    14    15   ar
     5    15    16   ar
     6    16    13    1
     7    13     7    1
     8     7     8    1
     9     7     9   am
    10     9    10    2
    11     9    11   am
    12    11     6    1
    13     6    22    1
    14    22    23    1
    15    23    24    1
    16     6     2    1
    17     2     3    2
    18     2     4   am
    19     4     1    1
    20     1    27    1
    21    27    28    1
    22    29    28    1
    23    29    41    1
    24    41    42    1
    25    42    43   ar
    26    43    44   ar
    27    44    45   ar
    28    45    46   ar
    29    46    47   ar
    30    29    30    1
    31    30    31   am
    32    31    32    2
    33    31    34    1
    34    34    35    1
    35    35    36    1
    36    36    37   ar
    37    37    38   ar
    38    38    39   ar
    39    39    40   ar
    40     1    48    1
    41    48    49    1
    42    49    50   ar
    43    50    51   ar
    44    51    52   ar
    45    52    53   ar
    46    53    54   ar
    47    16    17   ar
    48    17    18   ar
    49    18    14   ar
    50    47    42   ar
    51    40    36   ar
    52    54    49   ar
    53    11    12    1
    54    24    25    1
    55    24    26    1
    56     4     5    1
    57    30    33    1
@<TRIPOS>MOLECULE
*****
 54 57 0 0 0
SMALL
GASTEIGER

@<TRIPOS>ATOM
      1 C           2.9412   -0.2056   22.4413 C.3     1  UNL1        0.0760
      2 C           4.2871   -0.6944   24.6092 C.2     1  UNL1        0.2404
      3 O           5.4907   -0.0272   24.0124 O.2     1  UNL1       -0.2733
      4 N           3.0123   -0.7836   23.8236 N.am    1  UNL1       -0.3043
      5 H           2.2223   -1.2215   24.2153 H       1  UNL1        0.1494
      6 C           4.3582   -1.2723   25.9915 C.3     1  UNL1        0.1511
      7 N           2.5281   -0.4621   29.4186 N.am    1  UNL1       -0.2567
      8 C           2.8708   -0.2371   30.8615 C.3     1  UNL1        0.1168
      9 C           3.6145   -0.7547   28.4265 C.2     1  UNL1        0.3046
     10 O           5.0436   -0.8224   28.8773 O.2     1  UNL1       -0.2526
     11 N           3.2718   -0.9797   26.9836 N.am    1  UNL1       -0.2824
     12 H           2.3339   -0.9354   26.6877 H       1  UNL1        0.1514
     13 C           1.0991   -0.3945   28.9677 C.3     1  UNL1        0.1413
     14 C          -0.6796    2.4678   27.0419 C.ar    1  UNL1        0.0875
     15 N          -0.3880    1.0109   27.2477 N.ar    1  UNL1       -0.2453
     16 C           0.5472    0.8856   28.4137 C.ar    1  UNL1        0.0858
     17 C           0.8336    2.2650   28.9286 C.ar    1  UNL1        0.0530
     18 S           0.0754    3.2429   28.0807 S.2     1  UNL1       -0.0705
     19 C          -2.8516    3.7248   26.3691 C.3     1  UNL1        0.0069
     20 C          -1.5699    3.0478   25.9831 C.3     1  UNL1        0.0465
     21 C          -1.1785    2.9508   24.5383 C.3     1  UNL1        0.0069
     22 C           5.5157   -2.1429   26.3818 C.3     1  UNL1        0.0458
     23 C           6.1147   -3.0870   25.3819 C.3     1  UNL1        0.0674
     24 N           6.3671   -4.5169   25.7581 N.3     1  UNL1       -0.3211
     25 H           7.0850   -4.5565   26.4816 H       1  UNL1        0.1189
     26 H           6.6827   -5.0338   24.9374 H       1  UNL1        0.1189
     27 C           3.1993    1.2562   22.2254 C.3     1  UNL1        0.0216
     28 C           2.0513    2.1955   22.0024 C.3     1  UNL1        0.0217
     29 C           1.4105    2.2889   20.6493 C.3     1  UNL1        0.0792
     30 N          -0.0378    1.9373   20.4795 N.am    1  UNL1       -0.2720
     31 C          -1.0976    2.9506   20.7957 C.2     1  UNL1        0.4019
     32 O          -0.7092    4.3155   21.2818 O.2     1  UNL1       -0.2264
     33 H          -0.2927    1.0415   20.1604 H       1  UNL1        0.1527
     34 O          -2.5459    2.5990   20.6258 O.3     1  UNL1       -0.4291
     35 C          -3.5620    3.6833   20.4215 C.3     1  UNL1        0.2447
     36 C          -4.6811    3.8575   21.4049 C.ar    1  UNL1        0.0714
     37 C          -6.1184    4.1224   21.0671 C.ar    1  UNL1        0.1053
     38 N          -6.8851    4.2260   22.3522 N.ar    1  UNL1       -0.2350
     39 C          -5.9217    4.0251   23.4842 C.ar    1  UNL1        0.1343
     40 S          -4.5596    3.7973   22.8987 S.2     1  UNL1       -0.0652
     41 C           2.2180    2.7340   19.4662 C.3     1  UNL1        0.0460
     42 C           3.0871    1.7512   18.7388 C.ar    1  UNL1       -0.0205
     43 C           2.4683    0.5796   18.0358 C.ar    1  UNL1       -0.0042
     44 C           3.3374   -0.4031   17.3085 C.ar    1  UNL1       -0.0003
     45 C           4.8252   -0.2140   17.2841 C.ar    1  UNL1       -0.0000
     46 C           5.4440    0.9576   17.9871 C.ar    1  UNL1       -0.0003
     47 C           4.5750    1.9403   18.7145 C.ar    1  UNL1       -0.0042
     48 C           2.6120   -1.0894   21.2748 C.3     1  UNL1        0.0459
     49 C           3.7034   -1.8404   20.5714 C.ar    1  UNL1       -0.0205
     50 C           5.1366   -1.4483   20.7772 C.ar    1  UNL1       -0.0042
     51 C           6.2280   -2.1993   20.0737 C.ar    1  UNL1       -0.0003
     52 C           5.8862   -3.3424   19.1644 C.ar    1  UNL1       -0.0000
     53 C           4.4530   -3.7344   18.9587 C.ar    1  UNL1       -0.0003
     54 C           3.3616   -2.9834   19.6621 C.ar    1  UNL1       -0.0042
@<TRIPOS>BOND
     1    19    20    1
     2    20    21    1
     3    20    14    1
     4    14    15   ar
     5    15    16   ar
     6    16    13    1
     7    13     7    1
     8     7     8    1
     9     7     9   am
    10     9    10    2
    11     9    11   am
    12    11     6    1
    13     6    22    1
    14    22    23    1
    15    23    24    1
    16     6     2    1
    17     2     3    2
    18     2     4   am
    19     4     1    1
    20     1    27    1
    21    27    28    1
    22    29    28    1
    23    29    41    1
    24    41    42    1
    25    42    43   ar
    26    43    44   ar
    27    44    45   ar
    28    45    46   ar
    29    46    47   ar
    30    29    30    1
    31    30    31   am
    32    31    32    2
    33    31    34    1
    34    34    35    1
    35    35    36    1
    36    36    37   ar
    37    37    38   ar
    38    38    39   ar
    39    39    40   ar
    40     1    48    1
    41    48    49    1
    42    49    50   ar
    43    50    51   ar
    44    51    52   ar
    45    52    53   ar
    46    53    54   ar
    47    16    17   ar
    48    17    18   ar
    49    18    14   ar
    50    47    42   ar
    51    40    36   ar
    52    54    49   ar
    53    11    12    1
    54    24    25    1
    55    24    26    1
    56     4     5    1
    57    30    33    1
@<TRIPOS>MOLECULE
*****
 54 57 0 0 0
SMALL
GASTEIGER

@<TRIPOS>ATOM
      1 C           2.7074    0.2712   23.7486 C.3     1  UNL1        0.0760
      2 C           3.8220   -0.3874   26.0011 C.2     1  UNL1        0.2404
      3 O           4.9097    0.6161   25.7563 O.2     1  UNL1       -0.2733
      4 N           2.7208   -0.5598   24.9972 N.am    1  UNL1       -0.3043
      5 H           2.0069   -1.2184   25.1580 H       1  UNL1        0.1494
      6 C           3.8355   -1.2184   27.2498 C.3     1  UNL1        0.1511
      7 N           6.8952   -3.5139   28.3077 N.am    1  UNL1       -0.2567
      8 C           8.1268   -3.4395   29.1607 C.3     1  UNL1        0.1168
      9 C           5.9811   -2.3290   28.2052 C.2     1  UNL1        0.3046
     10 O           6.2987   -1.0697   28.9558 O.2     1  UNL1       -0.2526
     11 N           4.7496   -2.4034   27.3522 N.am    1  UNL1       -0.2824
     12 H           4.5411   -3.2299   26.8596 H       1  UNL1        0.1514
     13 C           6.5776   -4.7732   27.5572 C.3     1  UNL1        0.1413
     14 C           7.0702   -4.4704   23.7190 C.ar    1  UNL1        0.0875
     15 N           6.4709   -3.9845   25.0054 N.ar    1  UNL1       -0.2453
     16 C           6.9362   -4.8918   26.1055 C.ar    1  UNL1        0.0858
     17 C           7.8231   -5.9385   25.4990 C.ar    1  UNL1        0.0530
     18 S           7.9059   -5.6781   24.0241 S.2     1  UNL1       -0.0705
     19 C           5.8014   -2.8228   22.1616 C.3     1  UNL1        0.0069
     20 C           6.8691   -3.8565   22.3653 C.3     1  UNL1        0.0465
     21 C           7.7356   -4.2763   21.2151 C.3     1  UNL1        0.0069
     22 C           2.9350   -0.8645   28.3960 C.3     1  UNL1        0.0458
     23 C           3.0130    0.4981   29.0181 C.3     1  UNL1        0.0674
     24 N           4.2812    1.2936   28.9248 N.3     1  UNL1       -0.3211
     25 H           5.0172    0.8231   29.4515 H       1  UNL1        0.1189
     26 H           4.1279    2.2246   29.3123 H       1  UNL1        0.1189
     27 C           3.2338   -0.2967   22.4640 C.3     1  UNL1        0.0216
     28 C           3.6950    0.6216   21.3713 C.3     1  UNL1        0.0217
     29 C           2.8368    0.8364   20.1599 C.3     1  UNL1        0.0792
     30 N           1.6069    1.6899   20.2538 N.am    1  UNL1       -0.2720
     31 C           0.2727    1.0565   20.5160 C.2     1  UNL1        0.4019
     32 O           0.1684   -0.4304   20.6843 O.2     1  UNL1       -0.2264
     33 H           1.6754    2.6658   20.1434 H       1  UNL1        0.1527
     34 O          -0.9572    1.9100   20.6100 O.3     1  UNL1       -0.4291
     35 C          -1.0299    3.0116   21.6254 C.3     1  UNL1        0.2447
     36 C          -2.3243    3.7329   21.8582 C.ar    1  UNL1        0.0714
     37 C          -2.6170    4.6770   22.9864 C.ar    1  UNL1        0.1053
     38 N          -4.0269    5.1643   22.8292 N.ar    1  UNL1       -0.2350
     39 C          -4.6056    4.5214   21.6037 C.ar    1  UNL1        0.1343
     40 S          -3.5533    3.6367   21.0036 S.2     1  UNL1       -0.0652
     41 C           3.2086    0.1976   18.8546 C.3     1  UNL1        0.0460
     42 C           3.7504   -1.2010   18.8314 C.ar    1  UNL1       -0.0205
     43 C           5.0966   -1.4738   18.2288 C.ar    1  UNL1       -0.0042
     44 C           5.6384   -2.8724   18.2056 C.ar    1  UNL1       -0.0003
     45 C           4.8339   -3.9980   18.7851 C.ar    1  UNL1       -0.0000
     46 C           3.4877   -3.7251   19.3877 C.ar    1  UNL1       -0.0003
     47 C           2.9459   -2.3266   19.4109 C.ar    1  UNL1       -0.0042
     48 C           2.1675    1.6703   23.7846 C.3     1  UNL1        0.0459
     49 C           1.3244    2.1193   24.9411 C.ar    1  UNL1       -0.0205
     50 C          -0.1334    1.7689   24.9872 C.ar    1  UNL1       -0.0042
     51 C          -0.9765    2.2180   26.1438 C.ar    1  UNL1       -0.0003
     52 C          -0.3617    3.0174   27.2543 C.ar    1  UNL1       -0.0000
     53 C           1.0961    3.3677   27.2081 C.ar    1  UNL1       -0.0003
     54 C           1.9391    2.9187   26.0516 C.ar    1  UNL1       -0.0042
@<TRIPOS>BOND
     1    19    20    1
     2    20    21    1
     3    20    14    1
     4    14    15   ar
     5    15    16   ar
     6    16    13    1
     7    13     7    1
     8     7     8    1
     9     7     9   am
    10     9    10    2
    11     9    11   am
    12    11     6    1
    13     6    22    1
    14    22    23    1
    15    23    24    1
    16     6     2    1
    17     2     3    2
    18     2     4   am
    19     4     1    1
    20     1    27    1
    21    27    28    1
    22    29    28    1
    23    29    41    1
    24    41    42    1
    25    42    43   ar
    26    43    44   ar
    27    44    45   ar
    28    45    46   ar
    29    46    47   ar
    30    29    30    1
    31    30    31   am
    32    31    32    2
    33    31    34    1
    34    34    35    1
    35    35    36    1
    36    36    37   ar
    37    37    38   ar
    38    38    39   ar
    39    39    40   ar
    40     1    48    1
    41    48    49    1
    42    49    50   ar
    43    50    51   ar
    44    51    52   ar
    45    52    53   ar
    46    53    54   ar
    47    16    17   ar
    48    17    18   ar
    49    18    14   ar
    50    47    42   ar
    51    40    36   ar
    52    54    49   ar
    53    11    12    1
    54    24    25    1
    55    24    26    1
    56     4     5    1
    57    30    33    1
@<TRIPOS>MOLECULE
*****
 54 57 0 0 0
SMALL
GASTEIGER

@<TRIPOS>ATOM
      1 C           5.0841   -1.1632   29.3104 C.3     1  UNL1        0.0760
      2 C           3.3377    0.3722   28.1517 C.2     1  UNL1        0.2404
      3 O           3.8134    1.5335   28.9734 O.2     1  UNL1       -0.2733
      4 N           3.9730   -0.9761   28.3202 N.am    1  UNL1       -0.3043
      5 H           3.6608   -1.7383   27.7808 H       1  UNL1        0.1494
      6 C           2.2266    0.5593   27.1614 C.3     1  UNL1        0.1511
      7 N           3.5816    0.6218   23.4318 N.am    1  UNL1       -0.2567
      8 C           4.5211    1.4228   22.5800 C.3     1  UNL1        0.1168
      9 C           3.3739    0.9910   24.8707 C.2     1  UNL1        0.3046
     10 O           4.1057    2.1615   25.4578 O.2     1  UNL1       -0.2526
     11 N           2.4343    0.1900   25.7225 N.am    1  UNL1       -0.2824
     12 H           1.9540   -0.5782   25.3371 H       1  UNL1        0.1514
     13 C           2.8498   -0.5486   22.8447 C.3     1  UNL1        0.1413
     14 C           4.5800   -3.0663   20.4503 C.ar    1  UNL1        0.0875
     15 N           3.7251   -1.8561   20.6838 N.ar    1  UNL1       -0.2453
     16 C           3.6134   -1.6462   22.1648 C.ar    1  UNL1        0.0858
     17 C           4.3994   -2.7267   22.8467 C.ar    1  UNL1        0.0530
     18 S           4.9968   -3.6044   21.7870 S.2     1  UNL1       -0.0705
     19 C           4.5669   -5.0453   18.7669 C.3     1  UNL1        0.0069
     20 C           4.9528   -3.6380   19.1145 C.3     1  UNL1        0.0465
     21 C           5.7115   -2.8026   18.1264 C.3     1  UNL1        0.0069
     22 C           0.9079    1.1157   27.6101 C.3     1  UNL1        0.0458
     23 C           0.1608    0.4607   28.7339 C.3     1  UNL1        0.0674
     24 N          -0.9219   -0.5336   28.4356 N.3     1  UNL1       -0.3211
     25 H          -1.6962   -0.0629   27.9674 H       1  UNL1        0.1189
     26 H          -1.2528   -0.9477   29.3071 H       1  UNL1        0.1189
     27 C           4.7794   -1.2175   30.7781 C.3     1  UNL1        0.0216
     28 C           5.5991   -0.4149   31.7444 C.3     1  UNL1        0.0217
     29 C           6.1907   -1.0746   32.9548 C.3     1  UNL1        0.0792
     30 N           5.3873   -1.1851   34.2167 N.am    1  UNL1       -0.2720
     31 C           5.5339   -0.1497   35.2922 C.2     1  UNL1        0.4019
     32 O           6.4839    0.9960   35.1057 O.2     1  UNL1       -0.2264
     33 H           4.7637   -1.9370   34.3390 H       1  UNL1        0.1527
     34 O           4.7305   -0.2601   36.5540 O.3     1  UNL1       -0.4291
     35 C           4.7102    0.8769   37.5322 C.3     1  UNL1        0.2447
     36 C           3.4452    1.6512   37.7561 C.ar    1  UNL1        0.0714
     37 C           2.2165    1.1497   38.4554 C.ar    1  UNL1        0.1053
     38 N           1.1987    2.2515   38.4515 N.ar    1  UNL1       -0.2350
     39 C           1.7982    3.4339   37.7498 C.ar    1  UNL1        0.1343
     40 S           3.1866    3.0629   37.3200 S.2     1  UNL1       -0.0652
     41 C           7.5855   -1.6238   32.9033 C.3     1  UNL1        0.0460
     42 C           7.8427   -2.9598   32.2715 C.ar    1  UNL1       -0.0205
     43 C           6.7195   -3.9402   32.1066 C.ar    1  UNL1       -0.0042
     44 C           6.9767   -5.2761   31.4749 C.ar    1  UNL1       -0.0003
     45 C           8.3571   -5.6317   31.0081 C.ar    1  UNL1       -0.0000
     46 C           9.4804   -4.6514   31.1731 C.ar    1  UNL1       -0.0003
     47 C           9.2232   -3.3154   31.8048 C.ar    1  UNL1       -0.0042
     48 C           6.4999   -1.2959   28.8328 C.3     1  UNL1        0.0459
     49 C           7.0120   -2.6258   28.3649 C.ar    1  UNL1       -0.0205
     50 C           6.0648   -3.7764   28.1940 C.ar    1  UNL1       -0.0042
     51 C           6.5769   -5.1063   27.7261 C.ar    1  UNL1       -0.0003
     52 C           8.0362   -5.2857   27.4290 C.ar    1  UNL1       -0.0000
     53 C           8.9834   -4.1353   27.5998 C.ar    1  UNL1       -0.0003
     54 C           8.4713   -2.8053   28.0678 C.ar    1  UNL1       -0.0042
@<TRIPOS>BOND
     1    19    20    1
     2    20    21    1
     3    20    14    1
     4    14    15   ar
     5    15    16   ar
     6    16    13    1
     7    13     7    1
     8     7     8    1
     9     7     9   am
    10     9    10    2
    11     9    11   am
    12    11     6    1
    13     6    22    1
    14    22    23    1
    15    23    24    1
    16     6     2    1
    17     2     3    2
    18     2     4   am
    19     4     1    1
    20     1    27    1
    21    27    28    1
    22    29    28    1
    23    29    41    1
    24    41    42    1
    25    42    43   ar
    26    43    44   ar
    27    44    45   ar
    28    45    46   ar
    29    46    47   ar
    30    29    30    1
    31    30    31   am
    32    31    32    2
    33    31    34    1
    34    34    35    1
    35    35    36    1
    36    36    37   ar
    37    37    38   ar
    38    38    39   ar
    39    39    40   ar
    40     1    48    1
    41    48    49    1
    42    49    50   ar
    43    50    51   ar
    44    51    52   ar
    45    52    53   ar
    46    53    54   ar
    47    16    17   ar
    48    17    18   ar
    49    18    14   ar
    50    47    42   ar
    51    40    36   ar
    52    54    49   ar
    53    11    12    1
    54    24    25    1
    55    24    26    1
    56     4     5    1
    57    30    33    1
