@<TRIPOS>MOLECULE
*****
 26 29 0 0 0
SMALL
GASTEIGER

@<TRIPOS>ATOM
      1 C          -1.7469  -18.2237   20.7577 C.2     1  UNL1        0.0919
      2 C          -1.8954  -18.7949   22.1367 C.2     1  UNL1        0.0183
      3 C          -3.2445  -19.2306   22.6268 C.2     1  UNL1        0.0511
      4 C          -4.4451  -19.0950   21.7380 C.2     1  UNL1        0.2322
      5 N          -5.8910  -19.4363   21.9451 N.2     1  UNL1       -0.0308
      6 C          -6.6361  -19.0760   20.6941 C.2     1  UNL1        0.3753
      7 N          -5.6508  -18.5120   19.7138 N.2     1  UNL1       -0.0347
      8 C          -4.2966  -18.5238   20.3590 C.2     1  UNL1        0.2191
      9 C          -2.9475  -18.0881   19.8689 C.3     1  UNL1        0.1226
     10 C          -8.1083  -19.2492   20.4639 C.ar    1  UNL1        0.0914
     11 C          -8.6074  -19.7379   19.1365 C.ar    1  UNL1        0.0284
     12 C         -10.0794  -19.9112   18.9062 C.ar    1  UNL1        0.0991
     13 N         -11.0523  -19.5958   20.0034 N.ar    1  UNL1       -0.2438
     14 C         -10.5532  -19.1071   21.3309 C.ar    1  UNL1        0.0816
     15 C          -9.0812  -18.9338   21.5611 C.ar    1  UNL1        0.0268
     16 C         -11.5262  -18.7917   22.4281 C.ar    1  UNL1        0.0177
     17 C         -12.7780  -18.0238   22.1227 C.ar    1  UNL1        0.0015
     18 C         -13.7509  -17.7084   23.2199 C.ar    1  UNL1        0.0000
     19 C         -13.4721  -18.1610   24.6225 C.ar    1  UNL1        0.0000
     20 C         -12.2203  -18.9289   24.9280 C.ar    1  UNL1        0.0000
     21 C         -11.2474  -19.2443   23.8308 C.ar    1  UNL1        0.0015
     22 S          -0.3979  -17.7881   20.2676 S.O2    1  UNL1        0.0054
     23 O          -0.6806  -16.3900   20.7319 O.2     1  UNL1       -0.1689
     24 O          -0.1151  -19.1861   19.8033 O.2     1  UNL1       -0.1689
     25 C           2.1379  -17.4152   20.6927 C.3     1  UNL1        0.0276
     26 C           0.9512  -17.3524   19.7775 C.3     1  UNL1        0.1556
@<TRIPOS>BOND
     1    25    26    1
     2    26    22    1
     3    22    23    2
     4    22    24    2
     5    22     1    1
     6     1     2    2
     7     2     3    1
     8     3     4    2
     9     4     5    1
    10     5     6    2
    11     6    10    1
    12    10    11   ar
    13    11    12   ar
    14    12    13   ar
    15    13    14   ar
    16    14    16    1
    17    16    17   ar
    18    17    18   ar
    19    18    19   ar
    20    19    20   ar
    21    20    21   ar
    22    14    15   ar
    23     6     7    1
    24     7     8    2
    25     8     9    1
    26     9     1    1
    27     8     4    1
    28    15    10   ar
    29    21    16   ar
@<TRIPOS>MOLECULE
*****
 26 29 0 0 0
SMALL
GASTEIGER

@<TRIPOS>ATOM
      1 C         -12.2715  -18.3050   22.7757 C.2     1  UNL1        0.0919
      2 C         -12.3854  -17.6365   21.4378 C.2     1  UNL1        0.0183
      3 C         -11.2361  -17.6845   20.4751 C.2     1  UNL1        0.0511
      4 C          -9.9729  -18.4010   20.8503 C.2     1  UNL1        0.2322
      5 N          -8.6834  -18.6143   20.1143 N.2     1  UNL1       -0.0308
      6 C          -7.7725  -19.4146   20.9974 C.2     1  UNL1        0.3753
      7 N          -8.4990  -19.6960   22.2791 N.2     1  UNL1       -0.0347
      8 C          -9.8590  -19.0695   22.1882 C.2     1  UNL1        0.2191
      9 C         -11.0083  -19.0215   23.1509 C.3     1  UNL1        0.1226
     10 C          -6.3796  -19.8560   20.6582 C.ar    1  UNL1        0.0914
     11 C          -6.1240  -21.2717   20.2335 C.ar    1  UNL1        0.0284
     12 C          -4.7311  -21.7132   19.8943 C.ar    1  UNL1        0.0991
     13 N          -3.5939  -20.7389   19.9797 N.ar    1  UNL1       -0.2438
     14 C          -3.8495  -19.3231   20.4044 C.ar    1  UNL1        0.0816
     15 C          -5.2423  -18.8817   20.7436 C.ar    1  UNL1        0.0268
     16 C          -2.7122  -18.3488   20.4898 C.ar    1  UNL1        0.0177
     17 C          -1.5084  -18.5222   19.6118 C.ar    1  UNL1        0.0015
     18 C          -0.3712  -17.5479   19.6973 C.ar    1  UNL1        0.0000
     19 C          -0.4377  -16.4002   20.6608 C.ar    1  UNL1        0.0000
     20 C          -1.6414  -16.2267   21.5388 C.ar    1  UNL1        0.0000
     21 C          -2.7786  -17.2010   21.4533 C.ar    1  UNL1        0.0015
     22 S         -13.4208  -18.2570   23.7384 S.O2    1  UNL1        0.0054
     23 O         -14.3596  -17.9733   22.6035 O.2     1  UNL1       -0.1689
     24 O         -12.4820  -18.5408   24.8734 O.2     1  UNL1       -0.1689
     25 C         -14.3496  -18.5328   26.1490 C.3     1  UNL1        0.0276
     26 C         -14.5701  -18.2090   24.7011 C.3     1  UNL1        0.1556
@<TRIPOS>BOND
     1    25    26    1
     2    26    22    1
     3    22    23    2
     4    22    24    2
     5    22     1    1
     6     1     2    2
     7     2     3    1
     8     3     4    2
     9     4     5    1
    10     5     6    2
    11     6    10    1
    12    10    11   ar
    13    11    12   ar
    14    12    13   ar
    15    13    14   ar
    16    14    16    1
    17    16    17   ar
    18    17    18   ar
    19    18    19   ar
    20    19    20   ar
    21    20    21   ar
    22    14    15   ar
    23     6     7    1
    24     7     8    2
    25     8     9    1
    26     9     1    1
    27     8     4    1
    28    15    10   ar
    29    21    16   ar
@<TRIPOS>MOLECULE
*****
 26 29 0 0 0
SMALL
GASTEIGER

@<TRIPOS>ATOM
      1 C           3.1026   -0.8987   19.2171 C.2     1  UNL1        0.0919
      2 C           3.5435    0.2332   18.3372 C.2     1  UNL1        0.0183
      3 C           2.7366    1.4964   18.2793 C.2     1  UNL1        0.0511
      4 C           1.4888    1.6276   19.1013 C.2     1  UNL1        0.2322
      5 N           0.4968    2.7430   19.2489 N.2     1  UNL1       -0.0308
      6 C          -0.5572    2.3004   20.2201 C.2     1  UNL1        0.3753
      7 N          -0.2167    0.9115   20.6727 N.2     1  UNL1       -0.0347
      8 C           1.0479    0.4957   19.9811 C.2     1  UNL1        0.2191
      9 C           1.8547   -0.7675   20.0391 C.3     1  UNL1        0.1226
     10 C          -1.7436    3.1055   20.6613 C.ar    1  UNL1        0.0914
     11 C          -2.5848    3.8199   19.6454 C.ar    1  UNL1        0.0284
     12 C          -3.7711    4.6249   20.0865 C.ar    1  UNL1        0.0991
     13 N          -4.1161    4.7157   21.5434 N.ar    1  UNL1       -0.2438
     14 C          -3.2748    4.0013   22.5593 C.ar    1  UNL1        0.0816
     15 C          -2.0885    3.1962   22.1182 C.ar    1  UNL1        0.0268
     16 C          -3.6199    4.0920   24.0163 C.ar    1  UNL1        0.0177
     17 C          -2.6472    3.6052   25.0491 C.ar    1  UNL1        0.0015
     18 C          -2.9923    3.6960   26.5060 C.ar    1  UNL1        0.0000
     19 C          -4.3100    4.2736   26.9301 C.ar    1  UNL1        0.0000
     20 C          -5.2827    4.7604   25.8973 C.ar    1  UNL1        0.0000
     21 C          -4.9377    4.6696   24.4403 C.ar    1  UNL1        0.0015
     22 S           3.9094   -2.1619   19.2750 S.O2    1  UNL1        0.0054
     23 O           3.5590   -2.3193   20.7249 O.2     1  UNL1       -0.1689
     24 O           4.2599   -2.0045   17.8250 O.2     1  UNL1       -0.1689
     25 C           4.0711   -4.7422   19.0189 C.3     1  UNL1        0.0276
     26 C           4.7163   -3.4250   19.3329 C.3     1  UNL1        0.1556
@<TRIPOS>BOND
     1    25    26    1
     2    26    22    1
     3    22    23    2
     4    22    24    2
     5    22     1    1
     6     1     2    2
     7     2     3    1
     8     3     4    2
     9     4     5    1
    10     5     6    2
    11     6    10    1
    12    10    11   ar
    13    11    12   ar
    14    12    13   ar
    15    13    14   ar
    16    14    16    1
    17    16    17   ar
    18    17    18   ar
    19    18    19   ar
    20    19    20   ar
    21    20    21   ar
    22    14    15   ar
    23     6     7    1
    24     7     8    2
    25     8     9    1
    26     9     1    1
    27     8     4    1
    28    15    10   ar
    29    21    16   ar
@<TRIPOS>MOLECULE
*****
 26 29 0 0 0
SMALL
GASTEIGER

@<TRIPOS>ATOM
      1 C         -11.2967   -4.5526   18.9787 C.2     1  UNL1        0.0919
      2 C         -10.7555   -3.2607   18.4420 C.2     1  UNL1        0.0183
      3 C         -11.6069   -2.0259   18.4596 C.2     1  UNL1        0.0511
      4 C         -12.9995   -2.0829   19.0140 C.2     1  UNL1        0.2322
      5 N         -14.0644   -1.0370   19.1623 N.2     1  UNL1       -0.0308
      6 C         -15.2638   -1.6825   19.7906 C.2     1  UNL1        0.3753
      7 N         -14.9402   -3.1273   20.0307 N.2     1  UNL1       -0.0347
      8 C         -13.5407   -3.3748   19.5507 C.2     1  UNL1        0.2191
      9 C         -12.6893   -4.6096   19.5330 C.3     1  UNL1        0.1226
     10 C         -16.5594   -1.0024   20.1209 C.ar    1  UNL1        0.0914
     11 C         -17.8619   -1.6688   19.7900 C.ar    1  UNL1        0.0284
     12 C         -19.1574   -0.9888   20.1202 C.ar    1  UNL1        0.0991
     13 N         -19.1505    0.3576   20.7813 N.ar    1  UNL1       -0.2438
     14 C         -17.8481    1.0240   21.1123 C.ar    1  UNL1        0.0816
     15 C         -16.5525    0.3440   20.7820 C.ar    1  UNL1        0.0268
     16 C         -17.8412    2.3704   21.7735 C.ar    1  UNL1        0.0177
     17 C         -18.4451    3.5522   21.0746 C.ar    1  UNL1        0.0015
     18 C         -18.4383    4.8986   21.7358 C.ar    1  UNL1        0.0000
     19 C         -17.8274    5.0631   23.0959 C.ar    1  UNL1        0.0000
     20 C         -17.2235    3.8813   23.7947 C.ar    1  UNL1        0.0000
     21 C         -17.2304    2.5350   23.1335 C.ar    1  UNL1        0.0015
     22 S         -10.4454   -5.7875   18.9610 S.O2    1  UNL1        0.0054
     23 O         -11.6132   -6.5855   18.4616 O.2     1  UNL1       -0.1689
     24 O          -9.2775   -4.9894   19.4604 O.2     1  UNL1       -0.1689
     25 C          -9.8844   -8.1195   17.9627 C.3     1  UNL1        0.0276
     26 C          -9.5940   -7.0223   18.9433 C.3     1  UNL1        0.1556
@<TRIPOS>BOND
     1    25    26    1
     2    26    22    1
     3    22    23    2
     4    22    24    2
     5    22     1    1
     6     1     2    2
     7     2     3    1
     8     3     4    2
     9     4     5    1
    10     5     6    2
    11     6    10    1
    12    10    11   ar
    13    11    12   ar
    14    12    13   ar
    15    13    14   ar
    16    14    16    1
    17    16    17   ar
    18    17    18   ar
    19    18    19   ar
    20    19    20   ar
    21    20    21   ar
    22    14    15   ar
    23     6     7    1
    24     7     8    2
    25     8     9    1
    26     9     1    1
    27     8     4    1
    28    15    10   ar
    29    21    16   ar
@<TRIPOS>MOLECULE
*****
 26 29 0 0 0
SMALL
GASTEIGER

@<TRIPOS>ATOM
      1 C           6.5701   -3.8370   30.2185 C.2     1  UNL1        0.0919
      2 C           6.9731   -5.2802   30.2861 C.2     1  UNL1        0.0183
      3 C           7.3017   -6.0269   29.0274 C.2     1  UNL1        0.0511
      4 C           7.2274   -5.3304   27.7010 C.2     1  UNL1        0.2322
      5 N           7.4915   -5.8039   26.3025 N.2     1  UNL1       -0.0308
      6 C           7.2517   -4.6533   25.3704 C.2     1  UNL1        0.3753
      7 N           6.8394   -3.4687   26.1930 N.2     1  UNL1       -0.0347
      8 C           6.8243   -3.8872   27.6334 C.2     1  UNL1        0.2191
      9 C           6.4957   -3.1405   28.8921 C.3     1  UNL1        0.1226
     10 C           7.3985   -4.6824   23.8779 C.ar    1  UNL1        0.0914
     11 C           8.5280   -5.4441   23.2500 C.ar    1  UNL1        0.0284
     12 C           8.6748   -5.4731   21.7576 C.ar    1  UNL1        0.0991
     13 N           7.6922   -4.7404   20.8929 N.ar    1  UNL1       -0.2438
     14 C           6.5628   -3.9787   21.5208 C.ar    1  UNL1        0.0816
     15 C           6.4159   -3.9497   23.0132 C.ar    1  UNL1        0.0268
     16 C           5.5802   -3.2460   20.6560 C.ar    1  UNL1        0.0177
     17 C           4.3539   -2.6348   21.2664 C.ar    1  UNL1        0.0015
     18 C           3.3713   -1.9021   20.4017 C.ar    1  UNL1        0.0000
     19 C           3.6151   -1.7807   18.9266 C.ar    1  UNL1        0.0000
     20 C           4.8413   -2.3920   18.3162 C.ar    1  UNL1        0.0000
     21 C           5.8239   -3.1246   19.1809 C.ar    1  UNL1        0.0015
     22 S           6.2414   -3.0903   31.4772 S.O2    1  UNL1        0.0054
     23 O           5.8262   -1.9008   30.6632 O.2     1  UNL1       -0.1689
     24 O           6.6566   -4.2798   32.2913 O.2     1  UNL1       -0.1689
     25 C           4.5319   -2.4231   33.3164 C.3     1  UNL1        0.0276
     26 C           5.9128   -2.3436   32.7360 C.3     1  UNL1        0.1556
@<TRIPOS>BOND
     1    25    26    1
     2    26    22    1
     3    22    23    2
     4    22    24    2
     5    22     1    1
     6     1     2    2
     7     2     3    1
     8     3     4    2
     9     4     5    1
    10     5     6    2
    11     6    10    1
    12    10    11   ar
    13    11    12   ar
    14    12    13   ar
    15    13    14   ar
    16    14    16    1
    17    16    17   ar
    18    17    18   ar
    19    18    19   ar
    20    19    20   ar
    21    20    21   ar
    22    14    15   ar
    23     6     7    1
    24     7     8    2
    25     8     9    1
    26     9     1    1
    27     8     4    1
    28    15    10   ar
    29    21    16   ar
@<TRIPOS>MOLECULE
*****
 26 29 0 0 0
SMALL
GASTEIGER

@<TRIPOS>ATOM
      1 C         -12.4299   -5.2029   19.1460 C.2     1  UNL1        0.0919
      2 C         -13.5698   -6.1664   19.2946 C.2     1  UNL1        0.0183
      3 C         -14.9627   -5.6528   19.5097 C.2     1  UNL1        0.0511
      4 C         -15.2156   -4.1758   19.5762 C.2     1  UNL1        0.2322
      5 N         -16.4715   -3.3806   19.7768 N.2     1  UNL1       -0.0308
      6 C         -16.1077   -1.9255   19.7522 C.2     1  UNL1        0.3753
      7 N         -14.6269   -1.8215   19.5364 N.2     1  UNL1       -0.0347
      8 C         -14.0756   -3.2124   19.4277 C.2     1  UNL1        0.2191
      9 C         -12.6827   -3.7259   19.2126 C.3     1  UNL1        0.1226
     10 C         -17.0579   -0.7763   19.9148 C.ar    1  UNL1        0.0914
     11 C         -18.4055   -0.8185   19.2573 C.ar    1  UNL1        0.0284
     12 C         -19.3556    0.3307   19.4199 C.ar    1  UNL1        0.0991
     13 N         -18.9583    1.5221   20.2399 N.ar    1  UNL1       -0.2438
     14 C         -17.6107    1.5643   20.8974 C.ar    1  UNL1        0.0816
     15 C         -16.6605    0.4152   20.7348 C.ar    1  UNL1        0.0268
     16 C         -17.2133    2.7559   21.7175 C.ar    1  UNL1        0.0177
     17 C         -17.1754    2.6576   23.2138 C.ar    1  UNL1        0.0015
     18 C         -16.7781    3.8491   24.0337 C.ar    1  UNL1        0.0000
     19 C         -16.4186    5.1388   23.3575 C.ar    1  UNL1        0.0000
     20 C         -16.4565    5.2371   21.8612 C.ar    1  UNL1        0.0000
     21 C         -16.8539    4.0456   21.0412 C.ar    1  UNL1        0.0015
     22 S         -11.0370   -5.7164   18.9309 S.O2    1  UNL1        0.0054
     23 O         -11.5669   -7.1170   18.8437 O.2     1  UNL1       -0.1689
     24 O         -10.5072   -4.3158   19.0182 O.2     1  UNL1       -0.1689
     25 C          -9.3717   -7.7040   18.7689 C.3     1  UNL1        0.0276
     26 C          -9.6442   -6.2299   18.7158 C.3     1  UNL1        0.1556
@<TRIPOS>BOND
     1    25    26    1
     2    26    22    1
     3    22    23    2
     4    22    24    2
     5    22     1    1
     6     1     2    2
     7     2     3    1
     8     3     4    2
     9     4     5    1
    10     5     6    2
    11     6    10    1
    12    10    11   ar
    13    11    12   ar
    14    12    13   ar
    15    13    14   ar
    16    14    16    1
    17    16    17   ar
    18    17    18   ar
    19    18    19   ar
    20    19    20   ar
    21    20    21   ar
    22    14    15   ar
    23     6     7    1
    24     7     8    2
    25     8     9    1
    26     9     1    1
    27     8     4    1
    28    15    10   ar
    29    21    16   ar
@<TRIPOS>MOLECULE
*****
 26 29 0 0 0
SMALL
GASTEIGER

@<TRIPOS>ATOM
      1 C           3.6775    0.1407   18.4840 C.2     1  UNL1        0.0919
      2 C           3.1142   -1.0337   19.2278 C.2     1  UNL1        0.0183
      3 C           1.8164   -0.9004   19.9681 C.2     1  UNL1        0.0511
      4 C           1.0819    0.4075   19.9646 C.2     1  UNL1        0.2322
      5 N          -0.2080    0.8359   20.5990 N.2     1  UNL1       -0.0308
      6 C          -0.4419    2.2752   20.2473 C.2     1  UNL1        0.3753
      7 N           0.7034    2.7363   19.3955 N.2     1  UNL1       -0.0347
      8 C           1.6452    1.5819   19.2208 C.2     1  UNL1        0.2191
      9 C           2.9430    1.4486   18.4805 C.3     1  UNL1        0.1226
     10 C          -1.6153    3.1073   20.6727 C.ar    1  UNL1        0.0914
     11 C          -2.4106    3.8614   19.6486 C.ar    1  UNL1        0.0284
     12 C          -3.5839    4.6935   20.0740 C.ar    1  UNL1        0.0991
     13 N          -3.9619    4.7715   21.5234 N.ar    1  UNL1       -0.2438
     14 C          -3.1666    4.0173   22.5475 C.ar    1  UNL1        0.0816
     15 C          -1.9933    3.1853   22.1222 C.ar    1  UNL1        0.0268
     16 C          -3.5447    4.0953   23.9971 C.ar    1  UNL1        0.0177
     17 C          -2.5759    3.6453   25.0501 C.ar    1  UNL1        0.0015
     18 C          -2.9540    3.7232   26.4995 C.ar    1  UNL1        0.0000
     19 C          -4.3009    4.2513   26.8959 C.ar    1  UNL1        0.0000
     20 C          -5.2696    4.7013   25.8429 C.ar    1  UNL1        0.0000
     21 C          -4.8915    4.6234   24.3935 C.ar    1  UNL1        0.0015
     22 S           4.9752    0.0074   17.7437 S.O2    1  UNL1        0.0054
     23 O           4.4300   -1.1765   17.0013 O.2     1  UNL1       -0.1689
     24 O           5.5204    1.1913   18.4861 O.2     1  UNL1       -0.1689
     25 C           6.9485    1.0928   16.4484 C.3     1  UNL1        0.0276
     26 C           6.2730   -0.1260   17.0034 C.3     1  UNL1        0.1556
@<TRIPOS>BOND
     1    25    26    1
     2    26    22    1
     3    22    23    2
     4    22    24    2
     5    22     1    1
     6     1     2    2
     7     2     3    1
     8     3     4    2
     9     4     5    1
    10     5     6    2
    11     6    10    1
    12    10    11   ar
    13    11    12   ar
    14    12    13   ar
    15    13    14   ar
    16    14    16    1
    17    16    17   ar
    18    17    18   ar
    19    18    19   ar
    20    19    20   ar
    21    20    21   ar
    22    14    15   ar
    23     6     7    1
    24     7     8    2
    25     8     9    1
    26     9     1    1
    27     8     4    1
    28    15    10   ar
    29    21    16   ar
@<TRIPOS>MOLECULE
*****
 26 29 0 0 0
SMALL
GASTEIGER

@<TRIPOS>ATOM
      1 C           1.6189    0.7798   29.1043 C.2     1  UNL1        0.0919
      2 C           0.1917    1.2325   29.1935 C.2     1  UNL1        0.0183
      3 C          -0.5721    1.5560   27.9437 C.2     1  UNL1        0.0511
      4 C           0.0913    1.4267   26.6047 C.2     1  UNL1        0.2322
      5 N          -0.4048    1.6733   25.2107 N.2     1  UNL1       -0.0308
      6 C           0.7158    1.3729   24.2599 C.2     1  UNL1        0.3753
      7 N           1.9045    0.9407   25.0663 N.2     1  UNL1       -0.0347
      8 C           1.5185    0.9740   26.5154 C.2     1  UNL1        0.2191
      9 C           2.2823    0.6505   27.7652 C.3     1  UNL1        0.1226
     10 C           0.6578    1.4851   22.7652 C.ar    1  UNL1        0.0914
     11 C          -0.2907    2.4528   22.1220 C.ar    1  UNL1        0.0284
     12 C          -0.3487    2.5650   20.6273 C.ar    1  UNL1        0.0991
     13 N           0.5419    1.7094   19.7759 N.ar    1  UNL1       -0.2438
     14 C           1.4904    0.7417   20.4192 C.ar    1  UNL1        0.0816
     15 C           1.5484    0.6295   21.9138 C.ar    1  UNL1        0.0268
     16 C           2.3809   -0.1139   19.5677 C.ar    1  UNL1        0.0177
     17 C           2.8290   -1.4566   20.0642 C.ar    1  UNL1        0.0015
     18 C           3.7195   -2.3121   19.2127 C.ar    1  UNL1        0.0000
     19 C           4.1619   -1.8250   17.8648 C.ar    1  UNL1        0.0000
     20 C           3.7139   -0.4823   17.3683 C.ar    1  UNL1        0.0000
     21 C           2.8234    0.3732   18.2198 C.ar    1  UNL1        0.0015
     22 S           2.3827    0.4563   30.3541 S.O2    1  UNL1        0.0054
     23 O           1.2584    1.0033   31.1827 O.2     1  UNL1       -0.1689
     24 O           3.5070   -0.0908   29.5254 O.2     1  UNL1       -0.1689
     25 C           2.9874    0.9914   32.8234 C.3     1  UNL1        0.0276
     26 C           3.1465    0.1328   31.6038 C.3     1  UNL1        0.1556
@<TRIPOS>BOND
     1    25    26    1
     2    26    22    1
     3    22    23    2
     4    22    24    2
     5    22     1    1
     6     1     2    2
     7     2     3    1
     8     3     4    2
     9     4     5    1
    10     5     6    2
    11     6    10    1
    12    10    11   ar
    13    11    12   ar
    14    12    13   ar
    15    13    14   ar
    16    14    16    1
    17    16    17   ar
    18    17    18   ar
    19    18    19   ar
    20    19    20   ar
    21    20    21   ar
    22    14    15   ar
    23     6     7    1
    24     7     8    2
    25     8     9    1
    26     9     1    1
    27     8     4    1
    28    15    10   ar
    29    21    16   ar
@<TRIPOS>MOLECULE
*****
 26 29 0 0 0
SMALL
GASTEIGER

@<TRIPOS>ATOM
      1 C           6.9126   -4.2824   28.3068 C.2     1  UNL1        0.0919
      2 C           7.2710   -5.6465   27.7962 C.2     1  UNL1        0.0183
      3 C           7.2926   -5.9131   26.3202 C.2     1  UNL1        0.0511
      4 C           6.9559   -4.8156   25.3548 C.2     1  UNL1        0.2322
      5 N           6.8936   -4.7808   23.8565 N.2     1  UNL1       -0.0308
      6 C           6.4967   -3.3952   23.4411 C.2     1  UNL1        0.3753
      7 N           6.3136   -2.5736   24.6826 N.2     1  UNL1       -0.0347
      8 C           6.5975   -3.4515   25.8654 C.2     1  UNL1        0.2191
      9 C           6.5758   -3.1849   27.3414 C.3     1  UNL1        0.1226
     10 C           6.3147   -2.9155   22.0315 C.ar    1  UNL1        0.0914
     11 C           7.3911   -3.1521   21.0140 C.ar    1  UNL1        0.0284
     12 C           7.2093   -2.6724   19.6044 C.ar    1  UNL1        0.0991
     13 N           5.9510   -1.9561   19.2125 N.ar    1  UNL1       -0.2438
     14 C           4.8746   -1.7195   20.2300 C.ar    1  UNL1        0.0816
     15 C           5.0565   -2.1992   21.6396 C.ar    1  UNL1        0.0268
     16 C           3.6163   -1.0032   19.8380 C.ar    1  UNL1        0.0177
     17 C           3.6238   -0.0558   18.6752 C.ar    1  UNL1        0.0015
     18 C           2.3655    0.6605   18.2832 C.ar    1  UNL1        0.0000
     19 C           1.0997    0.4293   19.0541 C.ar    1  UNL1        0.0000
     20 C           1.0922   -0.5182   20.2169 C.ar    1  UNL1        0.0000
     21 C           2.3504   -1.2345   20.6089 C.ar    1  UNL1        0.0015
     22 S           6.8909   -4.0158   29.7827 S.O2    1  UNL1        0.0054
     23 O           6.5749   -5.4596   30.0389 O.2     1  UNL1       -0.1689
     24 O           7.2069   -2.5720   29.5266 O.2     1  UNL1       -0.1689
     25 C           5.8044   -2.8717   31.8468 C.3     1  UNL1        0.0276
     26 C           6.8693   -3.7492   31.2587 C.3     1  UNL1        0.1556
@<TRIPOS>BOND
     1    25    26    1
     2    26    22    1
     3    22    23    2
     4    22    24    2
     5    22     1    1
     6     1     2    2
     7     2     3    1
     8     3     4    2
     9     4     5    1
    10     5     6    2
    11     6    10    1
    12    10    11   ar
    13    11    12   ar
    14    12    13   ar
    15    13    14   ar
    16    14    16    1
    17    16    17   ar
    18    17    18   ar
    19    18    19   ar
    20    19    20   ar
    21    20    21   ar
    22    14    15   ar
    23     6     7    1
    24     7     8    2
    25     8     9    1
    26     9     1    1
    27     8     4    1
    28    15    10   ar
    29    21    16   ar
