@<TRIPOS>MOLECULE
*****
 28 30 0 0 0
SMALL
GASTEIGER

@<TRIPOS>ATOM
      1 C           2.8043   -1.0406   21.5648 C.2     1  UNL1        0.0412
      2 C           3.2491   -0.9984   22.9967 C.2     1  UNL1       -0.0326
      3 C           2.7213    0.0637   23.9150 C.3     1  UNL1        0.0442
      4 C           3.1661    0.1060   25.3469 C.3     1  UNL1        0.0993
      5 N           4.1389   -0.9139   25.8605 N.am    1  UNL1       -0.2634
      6 C           4.5837   -0.8717   27.2923 C.2     1  UNL1        0.3074
      7 O           5.5564   -1.8915   27.8059 O.2     1  UNL1       -0.2523
      8 N           4.0559    0.1905   28.2107 N.am    1  UNL1       -0.2602
      9 C           4.5007    0.2327   29.6425 C.3     1  UNL1        0.1167
     10 C           4.6667   -1.9760   24.9421 C.3     1  UNL1        0.0993
     11 C           4.2218   -2.0182   23.5102 C.3     1  UNL1        0.0442
     12 C           0.8589    0.9991   20.5376 C.1     1  UNL1       -0.0405
     13 C           1.8316   -0.0207   21.0512 C.1     1  UNL1       -0.0583
     14 C          -3.5758    3.6547   21.0673 C.3     1  UNL1        0.0521
     15 C          -2.3312    3.3468   20.2889 C.ar    1  UNL1        0.0600
     16 C          -2.0592    4.0587   18.9969 C.ar    1  UNL1        0.0148
     17 C          -0.8145    3.7507   18.2185 C.ar    1  UNL1        0.0034
     18 C           0.1582    2.7309   18.7320 C.ar    1  UNL1        0.0276
     19 C          -0.1138    2.0190   20.0240 C.ar    1  UNL1        0.1224
     20 N          -1.3585    2.3270   20.8024 N.ar    1  UNL1       -0.2414
     21 C           3.0832    1.2103   27.6971 C.3     1  UNL1        0.0995
     22 C           3.5828    2.4249   26.9722 C.3     1  UNL1        0.0265
     23 C           1.6110    1.0157   27.9084 C.ar    1  UNL1       -0.0042
     24 C           1.1168   -0.1445   28.7206 C.ar    1  UNL1       -0.0027
     25 C          -0.3555   -0.3390   28.9320 C.ar    1  UNL1       -0.0003
     26 C          -1.3335    0.6265   28.3311 C.ar    1  UNL1       -0.0000
     27 C          -0.8393    1.7868   27.5189 C.ar    1  UNL1       -0.0003
     28 C           0.6329    1.9814   27.3075 C.ar    1  UNL1       -0.0027
@<TRIPOS>BOND
     1    14    15    1
     2    15    16   ar
     3    16    17   ar
     4    17    18   ar
     5    18    19   ar
     6    19    12    1
     7    12    13    3
     8    13     1    1
     9     1     2    2
    10     2     3    1
    11     3     4    1
    12     4     5    1
    13     5     6   am
    14     6     7    2
    15     6     8   am
    16     8     9    1
    17     8    21    1
    18    21    22    1
    19    21    23    1
    20    23    24   ar
    21    24    25   ar
    22    25    26   ar
    23    26    27   ar
    24    27    28   ar
    25     5    10    1
    26    10    11    1
    27    19    20   ar
    28    20    15   ar
    29    11     2    1
    30    28    23   ar
@<TRIPOS>MOLECULE
*****
 28 30 0 0 0
SMALL
GASTEIGER

@<TRIPOS>ATOM
      1 C           0.0122    1.4449   20.7271 C.2     1  UNL1        0.0412
      2 C          -0.2534    2.3135   21.9208 C.2     1  UNL1       -0.0326
      3 C           0.5240    2.1066   23.1868 C.3     1  UNL1        0.0442
      4 C           0.2584    2.9753   24.3805 C.3     1  UNL1        0.0993
      5 N          -0.7847    4.0508   24.3082 N.am    1  UNL1       -0.2634
      6 C          -1.0503    4.9195   25.5019 C.2     1  UNL1        0.3074
      7 O          -2.0934    5.9950   25.4295 O.2     1  UNL1       -0.2523
      8 N          -0.2729    4.7126   26.7679 N.am    1  UNL1       -0.2602
      9 C          -0.5385    5.5812   27.9616 C.3     1  UNL1        0.1167
     10 C          -1.5621    4.2577   23.0422 C.3     1  UNL1        0.0993
     11 C          -1.2965    3.3891   21.8485 C.3     1  UNL1        0.0442
     12 C           2.0983   -0.7062   20.8718 C.1     1  UNL1       -0.0405
     13 C           1.0553    0.3693   20.7994 C.1     1  UNL1       -0.0583
     14 C           4.5704   -4.7303   18.7048 C.3     1  UNL1        0.0521
     15 C           4.3774   -3.7938   19.8606 C.ar    1  UNL1        0.0600
     16 C           5.2275   -3.9329   21.0886 C.ar    1  UNL1        0.0148
     17 C           5.0345   -2.9964   22.2443 C.ar    1  UNL1        0.0034
     18 C           3.9914   -1.9208   22.1721 C.ar    1  UNL1        0.0276
     19 C           3.1414   -1.7818   20.9441 C.ar    1  UNL1        0.1224
     20 N           3.3344   -2.7183   19.7883 N.ar    1  UNL1       -0.2414
     21 C           0.7701    3.6370   26.8402 C.3     1  UNL1        0.0995
     22 C           2.1337    3.8746   26.2621 C.3     1  UNL1        0.0265
     23 C           0.4496    2.3240   27.4908 C.ar    1  UNL1       -0.0042
     24 C           1.5581    1.4051   27.9114 C.ar    1  UNL1       -0.0027
     25 C           1.2376    0.0920   28.5619 C.ar    1  UNL1       -0.0003
     26 C          -0.1913   -0.3021   28.7918 C.ar    1  UNL1       -0.0000
     27 C          -1.2998    0.6168   28.3711 C.ar    1  UNL1       -0.0003
     28 C          -0.9793    1.9298   27.7206 C.ar    1  UNL1       -0.0027
@<TRIPOS>BOND
     1    14    15    1
     2    15    16   ar
     3    16    17   ar
     4    17    18   ar
     5    18    19   ar
     6    19    12    1
     7    12    13    3
     8    13     1    1
     9     1     2    2
    10     2     3    1
    11     3     4    1
    12     4     5    1
    13     5     6   am
    14     6     7    2
    15     6     8   am
    16     8     9    1
    17     8    21    1
    18    21    22    1
    19    21    23    1
    20    23    24   ar
    21    24    25   ar
    22    25    26   ar
    23    26    27   ar
    24    27    28   ar
    25     5    10    1
    26    10    11    1
    27    19    20   ar
    28    20    15   ar
    29    11     2    1
    30    28    23   ar
@<TRIPOS>MOLECULE
*****
 28 30 0 0 0
SMALL
GASTEIGER

@<TRIPOS>ATOM
      1 C           1.3797    1.0411   23.7630 C.2     1  UNL1        0.0412
      2 C           2.4363    0.0393   23.4027 C.2     1  UNL1       -0.0326
      3 C           2.6373   -0.3563   21.9699 C.3     1  UNL1        0.0442
      4 C           3.6939   -1.3582   21.6095 C.3     1  UNL1        0.0993
      5 N           4.5495   -1.9645   22.6821 N.am    1  UNL1       -0.2634
      6 C           5.6061   -2.9664   22.3218 C.2     1  UNL1        0.3074
      7 O           6.4616   -3.5727   23.3944 O.2     1  UNL1       -0.2523
      8 N           5.8071   -3.3620   20.8890 N.am    1  UNL1       -0.2602
      9 C           6.8637   -4.3638   20.5287 C.3     1  UNL1        0.1167
     10 C           4.3485   -1.5689   24.1150 C.3     1  UNL1        0.0993
     11 C           3.2918   -0.5670   24.4753 C.3     1  UNL1        0.0442
     12 C          -0.3315    2.2537   21.6179 C.1     1  UNL1       -0.0405
     13 C           0.5241    1.6474   22.6904 C.1     1  UNL1       -0.0583
     14 C          -5.0175    3.6143   19.8318 C.3     1  UNL1        0.0521
     15 C          -3.5302    3.5403   19.6523 C.ar    1  UNL1        0.0600
     16 C          -2.8984    4.0726   18.4004 C.ar    1  UNL1        0.0148
     17 C          -1.4110    3.9987   18.2209 C.ar    1  UNL1        0.0034
     18 C          -0.5554    3.3924   19.2934 C.ar    1  UNL1        0.0276
     19 C          -1.1872    2.8601   20.5454 C.ar    1  UNL1        0.1224
     20 N          -2.6745    2.9340   20.7248 N.ar    1  UNL1       -0.2414
     21 C           4.9516   -2.7557   19.8164 C.3     1  UNL1        0.0995
     22 C           3.6106   -3.3497   19.5014 C.3     1  UNL1        0.0265
     23 C           5.4368   -1.5555   19.0589 C.ar    1  UNL1       -0.0042
     24 C           4.6515   -1.0381   17.8903 C.ar    1  UNL1       -0.0027
     25 C           5.1368    0.1621   17.1328 C.ar    1  UNL1       -0.0003
     26 C           6.4074    0.8450   17.5437 C.ar    1  UNL1       -0.0000
     27 C           7.1929    0.3277   18.7123 C.ar    1  UNL1       -0.0003
     28 C           6.7076   -0.8726   19.4699 C.ar    1  UNL1       -0.0027
@<TRIPOS>BOND
     1    14    15    1
     2    15    16   ar
     3    16    17   ar
     4    17    18   ar
     5    18    19   ar
     6    19    12    1
     7    12    13    3
     8    13     1    1
     9     1     2    2
    10     2     3    1
    11     3     4    1
    12     4     5    1
    13     5     6   am
    14     6     7    2
    15     6     8   am
    16     8     9    1
    17     8    21    1
    18    21    22    1
    19    21    23    1
    20    23    24   ar
    21    24    25   ar
    22    25    26   ar
    23    26    27   ar
    24    27    28   ar
    25     5    10    1
    26    10    11    1
    27    19    20   ar
    28    20    15   ar
    29    11     2    1
    30    28    23   ar
@<TRIPOS>MOLECULE
*****
 28 30 0 0 0
SMALL
GASTEIGER

@<TRIPOS>ATOM
      1 C           5.7537   -2.3211   26.4269 C.2     1  UNL1        0.0412
      2 C           4.9498   -1.6096   27.4745 C.2     1  UNL1       -0.0326
      3 C           3.6412   -0.9726   27.1115 C.3     1  UNL1        0.0442
      4 C           2.8373   -0.2611   28.1590 C.3     1  UNL1        0.0993
      5 N           3.3420   -0.1866   29.5697 N.am    1  UNL1       -0.2634
      6 C           2.5381    0.5249   30.6172 C.2     1  UNL1        0.3074
      7 O           3.0427    0.5993   32.0278 O.2     1  UNL1       -0.2523
      8 N           1.2295    1.1619   30.2543 N.am    1  UNL1       -0.2602
      9 C           0.4255    1.8734   31.3018 C.3     1  UNL1        0.1167
     10 C           4.6506   -0.8237   29.9327 C.3     1  UNL1        0.0993
     11 C           5.4545   -1.5352   28.8850 C.3     1  UNL1        0.0442
     12 C           4.7445   -2.4701   23.6057 C.1     1  UNL1       -0.0405
     13 C           5.2491   -2.3956   25.0162 C.1     1  UNL1       -0.0583
     14 C           4.4069   -4.9907   19.0743 C.3     1  UNL1        0.0521
     15 C           4.0710   -3.8049   19.9294 C.ar    1  UNL1        0.0600
     16 C           3.2306   -2.6936   19.3739 C.ar    1  UNL1        0.0148
     17 C           2.8947   -1.5078   20.2289 C.ar    1  UNL1        0.0034
     18 C           3.3993   -1.4333   21.6395 C.ar    1  UNL1        0.0276
     19 C           4.2398   -2.5446   22.1950 C.ar    1  UNL1        0.1224
     20 N           4.5757   -3.7304   21.3400 N.ar    1  UNL1       -0.2414
     21 C           0.7248    1.0874   28.8437 C.3     1  UNL1        0.0995
     22 C          -0.1595   -0.0487   28.4225 C.3     1  UNL1        0.0265
     23 C           1.1043    2.1491   27.8543 C.ar    1  UNL1       -0.0042
     24 C           0.6099    2.0679   26.4405 C.ar    1  UNL1       -0.0027
     25 C           0.9895    3.1295   25.4511 C.ar    1  UNL1       -0.0003
     26 C           1.8634    4.2723   25.8755 C.ar    1  UNL1       -0.0000
     27 C           2.3579    4.3535   27.2894 C.ar    1  UNL1       -0.0003
     28 C           1.9783    3.2919   28.2788 C.ar    1  UNL1       -0.0027
@<TRIPOS>BOND
     1    14    15    1
     2    15    16   ar
     3    16    17   ar
     4    17    18   ar
     5    18    19   ar
     6    19    12    1
     7    12    13    3
     8    13     1    1
     9     1     2    2
    10     2     3    1
    11     3     4    1
    12     4     5    1
    13     5     6   am
    14     6     7    2
    15     6     8   am
    16     8     9    1
    17     8    21    1
    18    21    22    1
    19    21    23    1
    20    23    24   ar
    21    24    25   ar
    22    25    26   ar
    23    26    27   ar
    24    27    28   ar
    25     5    10    1
    26    10    11    1
    27    19    20   ar
    28    20    15   ar
    29    11     2    1
    30    28    23   ar
@<TRIPOS>MOLECULE
*****
 28 30 0 0 0
SMALL
GASTEIGER

@<TRIPOS>ATOM
      1 C           3.5239   -2.0884   21.2829 C.2     1  UNL1        0.0412
      2 C           2.7608   -0.9037   21.7968 C.2     1  UNL1       -0.0326
      3 C           2.9723   -0.4280   23.2036 C.3     1  UNL1        0.0442
      4 C           2.2092    0.7567   23.7174 C.3     1  UNL1        0.0993
      5 N           1.2345    1.4658   22.8244 N.am    1  UNL1       -0.2634
      6 C           0.4714    2.6505   23.3383 C.2     1  UNL1        0.3074
      7 O          -0.5032    3.3595   22.4454 O.2     1  UNL1       -0.2523
      8 N           0.6829    3.1262   24.7450 N.am    1  UNL1       -0.2602
      9 C          -0.0802    4.3109   25.2589 C.3     1  UNL1        0.1167
     10 C           1.0230    0.9901   21.4177 C.3     1  UNL1        0.0993
     11 C           1.7862   -0.1947   20.9039 C.3     1  UNL1        0.0442
     12 C           5.4733   -3.5065   23.0687 C.1     1  UNL1       -0.0405
     13 C           4.4986   -2.7975   22.1759 C.1     1  UNL1       -0.0583
     14 C           8.9508   -7.2925   23.8259 C.3     1  UNL1        0.0521
     15 C           8.1867   -6.1086   24.3402 C.ar    1  UNL1        0.0600
     16 C           8.3972   -5.6338   25.7474 C.ar    1  UNL1        0.0148
     17 C           7.6331   -4.4499   26.2617 C.ar    1  UNL1        0.0034
     18 C           6.6585   -3.7408   25.3689 C.ar    1  UNL1        0.0276
     19 C           6.4479   -4.2156   23.9617 C.ar    1  UNL1        0.1224
     20 N           7.2121   -5.3995   23.4474 N.ar    1  UNL1       -0.2414
     21 C           1.6575    2.4172   25.6380 C.3     1  UNL1        0.0995
     22 C           3.1317    2.6236   25.4527 C.3     1  UNL1        0.0265
     23 C           1.1581    1.5018   26.7162 C.ar    1  UNL1       -0.0042
     24 C           2.1331    0.7557   27.5779 C.ar    1  UNL1       -0.0027
     25 C           1.6337   -0.1597   28.6561 C.ar    1  UNL1       -0.0003
     26 C           0.1591   -0.3291   28.8725 C.ar    1  UNL1       -0.0000
     27 C          -0.8161    0.4169   28.0108 C.ar    1  UNL1       -0.0003
     28 C          -0.3166    1.3324   26.9326 C.ar    1  UNL1       -0.0027
@<TRIPOS>BOND
     1    14    15    1
     2    15    16   ar
     3    16    17   ar
     4    17    18   ar
     5    18    19   ar
     6    19    12    1
     7    12    13    3
     8    13     1    1
     9     1     2    2
    10     2     3    1
    11     3     4    1
    12     4     5    1
    13     5     6   am
    14     6     7    2
    15     6     8   am
    16     8     9    1
    17     8    21    1
    18    21    22    1
    19    21    23    1
    20    23    24   ar
    21    24    25   ar
    22    25    26   ar
    23    26    27   ar
    24    27    28   ar
    25     5    10    1
    26    10    11    1
    27    19    20   ar
    28    20    15   ar
    29    11     2    1
    30    28    23   ar
@<TRIPOS>MOLECULE
*****
 28 30 0 0 0
SMALL
GASTEIGER

@<TRIPOS>ATOM
      1 C           6.5177   -3.5381   26.1670 C.2     1  UNL1        0.0412
      2 C           6.1629   -2.5345   27.2238 C.2     1  UNL1       -0.0326
      3 C           5.2142   -1.4164   26.9081 C.3     1  UNL1        0.0442
      4 C           4.8594   -0.4128   27.9649 C.3     1  UNL1        0.0993
      5 N           5.4534   -0.5274   29.3376 N.am    1  UNL1       -0.2634
      6 C           5.0986    0.4762   30.3944 C.2     1  UNL1        0.3074
      7 O           5.6926    0.3616   31.7670 O.2     1  UNL1       -0.2523
      8 N           4.1499    1.5943   30.0787 N.am    1  UNL1       -0.2602
      9 C           3.7951    2.5979   31.1355 C.3     1  UNL1        0.1167
     10 C           6.4021   -1.6455   29.6533 C.3     1  UNL1        0.0993
     11 C           6.7569   -2.6491   28.5964 C.3     1  UNL1        0.0442
     12 C           5.3298   -3.3090   23.4217 C.1     1  UNL1       -0.0405
     13 C           5.9237   -3.4235   24.7943 C.1     1  UNL1       -0.0583
     14 C           4.5476   -5.2804   18.6781 C.3     1  UNL1        0.0521
     15 C           4.3448   -4.1802   19.6773 C.ar    1  UNL1        0.0600
     16 C           3.5480   -2.9655   19.3038 C.ar    1  UNL1        0.0148
     17 C           3.3451   -1.8652   20.3030 C.ar    1  UNL1        0.0034
     18 C           3.9390   -1.9797   21.6756 C.ar    1  UNL1        0.0276
     19 C           4.7358   -3.1944   22.0490 C.ar    1  UNL1        0.1224
     20 N           4.9387   -4.2947   21.0499 N.ar    1  UNL1       -0.2414
     21 C           3.5559    1.7089   28.7061 C.3     1  UNL1        0.0995
     22 C           4.3686    2.2811   27.5825 C.3     1  UNL1        0.0265
     23 C           2.1493    1.2514   28.4570 C.ar    1  UNL1       -0.0042
     24 C           1.5139    0.2474   29.3726 C.ar    1  UNL1       -0.0027
     25 C           0.1073   -0.2101   29.1234 C.ar    1  UNL1       -0.0003
     26 C          -0.6640    0.3363   27.9587 C.ar    1  UNL1       -0.0000
     27 C          -0.0286    1.3402   27.0430 C.ar    1  UNL1       -0.0003
     28 C           1.3780    1.7978   27.2922 C.ar    1  UNL1       -0.0027
@<TRIPOS>BOND
     1    14    15    1
     2    15    16   ar
     3    16    17   ar
     4    17    18   ar
     5    18    19   ar
     6    19    12    1
     7    12    13    3
     8    13     1    1
     9     1     2    2
    10     2     3    1
    11     3     4    1
    12     4     5    1
    13     5     6   am
    14     6     7    2
    15     6     8   am
    16     8     9    1
    17     8    21    1
    18    21    22    1
    19    21    23    1
    20    23    24   ar
    21    24    25   ar
    22    25    26   ar
    23    26    27   ar
    24    27    28   ar
    25     5    10    1
    26    10    11    1
    27    19    20   ar
    28    20    15   ar
    29    11     2    1
    30    28    23   ar
@<TRIPOS>MOLECULE
*****
 28 30 0 0 0
SMALL
GASTEIGER

@<TRIPOS>ATOM
      1 C           0.0584    2.0876   21.3404 C.2     1  UNL1        0.0412
      2 C           1.0426    1.2876   20.5395 C.2     1  UNL1       -0.0326
      3 C           2.0798    0.4586   21.2374 C.3     1  UNL1        0.0442
      4 C           3.0639   -0.3414   20.4366 C.3     1  UNL1        0.0993
      5 N           3.0109   -0.3124   18.9377 N.am    1  UNL1       -0.2634
      6 C           3.9951   -1.1123   18.1369 C.2     1  UNL1        0.3074
      7 O           3.9421   -1.0833   16.6381 O.2     1  UNL1       -0.2523
      8 N           5.0322   -1.9414   18.8347 N.am    1  UNL1       -0.2602
      9 C           6.0164   -2.7413   18.0339 C.3     1  UNL1        0.1167
     10 C           1.9738    0.5167   18.2398 C.3     1  UNL1        0.0993
     11 C           0.9896    1.3167   19.0408 C.3     1  UNL1        0.0442
     12 C           0.1643    2.0296   24.3380 C.1     1  UNL1       -0.0405
     13 C           0.1114    2.0586   22.8392 C.1     1  UNL1       -0.0583
     14 C          -1.3140   -0.0747   28.8531 C.3     1  UNL1        0.0521
     15 C          -0.5219    0.9484   28.0943 C.ar    1  UNL1        0.0600
     16 C           0.3232    1.9425   28.8343 C.ar    1  UNL1        0.0148
     17 C           1.1153    2.9657   28.0755 C.ar    1  UNL1        0.0034
     18 C           1.0624    2.9947   26.5768 C.ar    1  UNL1        0.0276
     19 C           0.2173    2.0006   25.8368 C.ar    1  UNL1        0.1224
     20 N          -0.5748    0.9775   26.5956 N.ar    1  UNL1       -0.2414
     21 C           5.0852   -1.9704   20.3335 C.3     1  UNL1        0.0995
     22 C           4.2866   -2.9882   21.0927 C.3     1  UNL1        0.0265
     23 C           5.9369   -0.9816   21.0731 C.ar    1  UNL1       -0.0042
     24 C           5.9997   -1.0187   22.5713 C.ar    1  UNL1       -0.0027
     25 C           6.8513   -0.0299   23.3110 C.ar    1  UNL1       -0.0003
     26 C           7.6402    0.9958   22.5525 C.ar    1  UNL1       -0.0000
     27 C           7.5774    1.0329   21.0542 C.ar    1  UNL1       -0.0003
     28 C           6.7258    0.0442   20.3145 C.ar    1  UNL1       -0.0027
@<TRIPOS>BOND
     1    14    15    1
     2    15    16   ar
     3    16    17   ar
     4    17    18   ar
     5    18    19   ar
     6    19    12    1
     7    12    13    3
     8    13     1    1
     9     1     2    2
    10     2     3    1
    11     3     4    1
    12     4     5    1
    13     5     6   am
    14     6     7    2
    15     6     8   am
    16     8     9    1
    17     8    21    1
    18    21    22    1
    19    21    23    1
    20    23    24   ar
    21    24    25   ar
    22    25    26   ar
    23    26    27   ar
    24    27    28   ar
    25     5    10    1
    26    10    11    1
    27    19    20   ar
    28    20    15   ar
    29    11     2    1
    30    28    23   ar
@<TRIPOS>MOLECULE
*****
 28 30 0 0 0
SMALL
GASTEIGER

@<TRIPOS>ATOM
      1 C           6.2447   -3.2508   32.4990 C.2     1  UNL1        0.0412
      2 C           5.2819   -2.1010   32.4684 C.2     1  UNL1       -0.0326
      3 C           4.6229   -1.7087   31.1793 C.3     1  UNL1        0.0442
      4 C           3.6601   -0.5589   31.1487 C.3     1  UNL1        0.0993
      5 N           3.3562    0.1986   32.4073 N.am    1  UNL1       -0.2634
      6 C           2.3934    1.3484   32.3767 C.2     1  UNL1        0.3074
      7 O           2.0897    2.1059   33.6352 O.2     1  UNL1       -0.2523
      8 N           1.7344    1.7407   31.0876 N.am    1  UNL1       -0.2602
      9 C           0.7716    2.8904   31.0570 C.3     1  UNL1        0.1167
     10 C           4.0153   -0.1937   33.6964 C.3     1  UNL1        0.0993
     11 C           4.9781   -1.3435   33.7269 C.3     1  UNL1        0.0442
     12 C           6.8524   -4.7658   29.9820 C.1     1  UNL1       -0.0405
     13 C           6.5485   -4.0083   31.2405 C.1     1  UNL1       -0.0583
     14 C           8.9711   -8.8691   27.5999 C.3     1  UNL1        0.0521
     15 C           8.2155   -7.5750   27.5324 C.ar    1  UNL1        0.0600
     16 C           7.7638   -7.0385   26.2065 C.ar    1  UNL1        0.0148
     17 C           7.0083   -5.7444   26.1391 C.ar    1  UNL1        0.0034
     18 C           6.7045   -4.9868   27.3975 C.ar    1  UNL1        0.0276
     19 C           7.1562   -5.5234   28.7234 C.ar    1  UNL1        0.1224
     20 N           7.9117   -6.8174   28.7909 N.ar    1  UNL1       -0.2414
     21 C           2.0382    0.9832   29.8291 C.3     1  UNL1        0.0995
     22 C           1.2097   -0.2094   29.4530 C.3     1  UNL1        0.0265
     23 C           3.1704    1.4182   28.9466 C.ar    1  UNL1       -0.0042
     24 C           3.4972    0.6393   27.7071 C.ar    1  UNL1       -0.0027
     25 C           4.6295    1.0744   26.8246 C.ar    1  UNL1       -0.0003
     26 C           5.4349    2.2883   27.1817 C.ar    1  UNL1       -0.0000
     27 C           5.1081    3.0673   28.4212 C.ar    1  UNL1       -0.0003
     28 C           3.9759    2.6323   29.3037 C.ar    1  UNL1       -0.0027
@<TRIPOS>BOND
     1    14    15    1
     2    15    16   ar
     3    16    17   ar
     4    17    18   ar
     5    18    19   ar
     6    19    12    1
     7    12    13    3
     8    13     1    1
     9     1     2    2
    10     2     3    1
    11     3     4    1
    12     4     5    1
    13     5     6   am
    14     6     7    2
    15     6     8   am
    16     8     9    1
    17     8    21    1
    18    21    22    1
    19    21    23    1
    20    23    24   ar
    21    24    25   ar
    22    25    26   ar
    23    26    27   ar
    24    27    28   ar
    25     5    10    1
    26    10    11    1
    27    19    20   ar
    28    20    15   ar
    29    11     2    1
    30    28    23   ar
@<TRIPOS>MOLECULE
*****
 28 30 0 0 0
SMALL
GASTEIGER

@<TRIPOS>ATOM
      1 C           1.5919    1.8225   25.8697 C.2     1  UNL1        0.0412
      2 C           2.3080    1.2728   24.6719 C.2     1  UNL1       -0.0326
      3 C           1.6153    1.2206   23.3424 C.3     1  UNL1        0.0442
      4 C           2.3315    0.6708   22.1446 C.3     1  UNL1        0.0993
      5 N           3.7405    0.1731   22.2762 N.am    1  UNL1       -0.2634
      6 C           4.4566   -0.3766   21.0784 C.2     1  UNL1        0.3074
      7 O           5.8655   -0.8743   21.2100 O.2     1  UNL1       -0.2523
      8 N           3.7639   -0.4288   19.7489 N.am    1  UNL1       -0.2602
      9 C           4.4801   -0.9786   18.5511 C.3     1  UNL1        0.1167
     10 C           4.4332    0.2253   23.6057 C.3     1  UNL1        0.0993
     11 C           3.7169    0.7751   24.8035 C.3     1  UNL1        0.0442
     12 C          -1.2259    2.8179   25.6065 C.1     1  UNL1       -0.0405
     13 C           0.1829    2.3202   25.7381 C.1     1  UNL1       -0.0583
     14 C          -5.4861    3.5585   22.7251 C.3     1  UNL1        0.0521
     15 C          -4.7649    3.6859   24.0342 C.ar    1  UNL1        0.0600
     16 C          -5.4526    4.3109   25.2116 C.ar    1  UNL1        0.0148
     17 C          -4.7314    4.4383   26.5207 C.ar    1  UNL1        0.0034
     18 C          -3.3226    3.9407   26.6523 C.ar    1  UNL1        0.0276
     19 C          -2.6349    3.3156   25.4749 C.ar    1  UNL1        0.1224
     20 N          -3.3561    3.1882   24.1658 N.ar    1  UNL1       -0.2414
     21 C           2.3551    0.0689   19.6173 C.3     1  UNL1        0.0995
     22 C           1.2076   -0.8163   20.0046 C.3     1  UNL1        0.0265
     23 C           2.0935    1.4517   19.0983 C.ar    1  UNL1       -0.0042
     24 C           3.2281    2.4197   18.9380 C.ar    1  UNL1       -0.0027
     25 C           2.9665    3.8025   18.4190 C.ar    1  UNL1       -0.0003
     26 C           1.5704    4.2174   18.0603 C.ar    1  UNL1       -0.0000
     27 C           0.4357    3.2494   18.2207 C.ar    1  UNL1       -0.0003
     28 C           0.6973    1.8666   18.7396 C.ar    1  UNL1       -0.0027
@<TRIPOS>BOND
     1    14    15    1
     2    15    16   ar
     3    16    17   ar
     4    17    18   ar
     5    18    19   ar
     6    19    12    1
     7    12    13    3
     8    13     1    1
     9     1     2    2
    10     2     3    1
    11     3     4    1
    12     4     5    1
    13     5     6   am
    14     6     7    2
    15     6     8   am
    16     8     9    1
    17     8    21    1
    18    21    22    1
    19    21    23    1
    20    23    24   ar
    21    24    25   ar
    22    25    26   ar
    23    26    27   ar
    24    27    28   ar
    25     5    10    1
    26    10    11    1
    27    19    20   ar
    28    20    15   ar
    29    11     2    1
    30    28    23   ar
