@<TRIPOS>MOLECULE
*****
 28 31 0 0 0
SMALL
GASTEIGER

@<TRIPOS>ATOM
      1 C           9.3034   -2.7252   22.6962 C.3     1  UNL1        0.0264
      2 C           7.8941   -2.8901   22.2095 C.3     1  UNL1        0.0983
      3 C           7.4285   -2.7441   20.7911 C.ar    1  UNL1        0.0003
      4 C           8.1600   -2.4161   19.5233 C.ar    1  UNL1       -0.0025
      5 C           7.4127   -2.3378   18.2251 C.ar    1  UNL1       -0.0001
      6 C           5.9339   -2.5874   18.1947 C.ar    1  UNL1        0.0046
      7 C           5.2025   -2.9154   19.4624 C.ar    1  UNL1        0.0572
      8 C           5.9497   -2.9938   20.7606 C.ar    1  UNL1        0.0555
      9 C           5.5015   -3.2940   22.1603 C.2     1  UNL1        0.2490
     10 O           4.0979   -3.6040   22.5891 O.2     1  UNL1       -0.2699
     11 N           6.7032   -3.2300   23.0557 N.am    1  UNL1       -0.2755
     12 C           6.7123   -3.4646   24.5372 C.3     1  UNL1        0.0786
     13 C           6.4035   -2.3371   25.4770 C.3     1  UNL1        0.0372
     14 C           6.4126   -2.5717   26.9585 C.3     1  UNL1        0.0738
     15 N           6.7305   -3.9338   27.5002 N.3     1  UNL1       -0.2738
     16 C           7.0393   -5.0613   26.5604 C.3     1  UNL1        0.0738
     17 C           7.0302   -4.8267   25.0789 C.3     1  UNL1        0.0372
     18 C           6.7397   -4.1684   28.9818 C.3     1  UNL1        0.0575
     19 C           6.4962   -3.0265   29.9234 C.3     1  UNL1        0.0160
     20 C           6.5053   -3.2611   31.4049 C.3     1  UNL1        0.0014
     21 C           6.7579   -4.6376   31.9448 C.3     1  UNL1        0.0001
     22 C           7.0014   -5.7795   31.0031 C.3     1  UNL1        0.0014
     23 C           6.9923   -5.5448   29.5216 C.3     1  UNL1        0.0160
     24 C           3.7237   -3.1651   19.4320 C.2     1  UNL1        0.2429
     25 N           3.1951   -4.4810   18.9433 N.am    1  UNL1       -0.3253
     26 O           2.7735   -2.0988   19.8903 O.2     1  UNL1       -0.2704
     27 H           3.8188   -5.1809   18.6426 H       1  UNL1        0.1453
     28 H           2.2246   -4.6449   18.9234 H       1  UNL1        0.1453
@<TRIPOS>BOND
     1     2     1    1
     2     2     3    1
     3     3     4   ar
     4     4     5   ar
     5     5     6   ar
     6     6     7   ar
     7     7    24    1
     8    24    25   am
     9    24    26    2
    10     7     8   ar
    11     8     9    1
    12     9    10    2
    13     9    11   am
    14    11    12    1
    15    12    13    1
    16    13    14    1
    17    14    15    1
    18    15    18    1
    19    18    19    1
    20    19    20    1
    21    20    21    1
    22    21    22    1
    23    22    23    1
    24    15    16    1
    25    16    17    1
    26    11     2    1
    27    17    12    1
    28     8     3   ar
    29    23    18    1
    30    25    27    1
    31    25    28    1
@<TRIPOS>MOLECULE
*****
 28 31 0 0 0
SMALL
GASTEIGER

@<TRIPOS>ATOM
      1 C           2.8838    2.1719   32.3302 C.3     1  UNL1        0.0264
      2 C           3.1722    1.8740   33.7718 C.3     1  UNL1        0.0983
      3 C           2.7104    2.6816   34.9484 C.ar    1  UNL1        0.0003
      4 C           1.8872    3.9316   35.0469 C.ar    1  UNL1       -0.0025
      5 C           1.5794    4.5229   36.3906 C.ar    1  UNL1       -0.0001
      6 C           2.0947    3.8642   37.6358 C.ar    1  UNL1        0.0046
      7 C           2.9179    2.6142   37.5373 C.ar    1  UNL1        0.0572
      8 C           3.2257    2.0228   36.1936 C.ar    1  UNL1        0.0555
      9 C           4.0060    0.8082   35.7865 C.2     1  UNL1        0.2490
     10 O           4.6978   -0.1468   36.7135 O.2     1  UNL1       -0.2699
     11 N           3.9729    0.7162   34.2897 N.am    1  UNL1       -0.2755
     12 C           4.6259   -0.3470   33.4570 C.3     1  UNL1        0.0786
     13 C           4.2344   -1.7841   33.6339 C.3     1  UNL1        0.0372
     14 C           4.8874   -2.8473   32.8013 C.3     1  UNL1        0.0738
     15 N           5.9319   -2.4733   31.7917 N.3     1  UNL1       -0.2738
     16 C           6.3233   -1.0362   31.6149 C.3     1  UNL1        0.0738
     17 C           5.6703    0.0270   32.4475 C.3     1  UNL1        0.0372
     18 C           6.5848   -3.5365   30.9591 C.3     1  UNL1        0.0575
     19 C           7.0503   -4.8104   31.5996 C.3     1  UNL1        0.0160
     20 C           7.7033   -5.8736   30.7670 C.3     1  UNL1        0.0014
     21 C           7.8908   -5.6628   29.2938 C.3     1  UNL1        0.0001
     22 C           7.4253   -4.3888   28.6532 C.3     1  UNL1        0.0014
     23 C           6.7723   -3.3257   29.4859 C.3     1  UNL1        0.0160
     24 C           3.4332    1.9555   38.7825 C.2     1  UNL1        0.2429
     25 N           2.9531    0.5854   39.1599 N.am    1  UNL1       -0.3253
     26 O           4.4286    2.6668   39.6503 O.2     1  UNL1       -0.2704
     27 H           2.2998    0.1185   38.5903 H       1  UNL1        0.1453
     28 H           3.2913    0.1531   39.9772 H       1  UNL1        0.1453
@<TRIPOS>BOND
     1     2     1    1
     2     2     3    1
     3     3     4   ar
     4     4     5   ar
     5     5     6   ar
     6     6     7   ar
     7     7    24    1
     8    24    25   am
     9    24    26    2
    10     7     8   ar
    11     8     9    1
    12     9    10    2
    13     9    11   am
    14    11    12    1
    15    12    13    1
    16    13    14    1
    17    14    15    1
    18    15    18    1
    19    18    19    1
    20    19    20    1
    21    20    21    1
    22    21    22    1
    23    22    23    1
    24    15    16    1
    25    16    17    1
    26    11     2    1
    27    17    12    1
    28     8     3   ar
    29    23    18    1
    30    25    27    1
    31    25    28    1
@<TRIPOS>MOLECULE
*****
 28 31 0 0 0
SMALL
GASTEIGER

@<TRIPOS>ATOM
      1 C           7.7896   -0.0633   27.5751 C.3     1  UNL1        0.0264
      2 C           7.5739   -1.3899   28.2411 C.3     1  UNL1        0.0983
      3 C           8.0221   -1.7663   29.6222 C.ar    1  UNL1        0.0003
      4 C           8.7620   -1.0028   30.6803 C.ar    1  UNL1       -0.0025
      5 C           9.0772   -1.6550   31.9937 C.ar    1  UNL1       -0.0001
      6 C           8.6525   -3.0708   32.2491 C.ar    1  UNL1        0.0046
      7 C           7.9126   -3.8343   31.1911 C.ar    1  UNL1        0.0572
      8 C           7.5973   -3.1820   29.8776 C.ar    1  UNL1        0.0555
      9 C           6.8867   -3.6806   28.6544 C.2     1  UNL1        0.2490
     10 O           6.2945   -5.0469   28.4742 O.2     1  UNL1       -0.2699
     11 N           6.8722   -2.5730   27.6429 N.am    1  UNL1       -0.2755
     12 C           6.2630   -2.6372   26.2737 C.3     1  UNL1        0.0786
     13 C           6.8013   -3.6005   25.2577 C.3     1  UNL1        0.0372
     14 C           6.1920   -3.6648   23.8885 C.3     1  UNL1        0.0738
     15 N           5.0445   -2.7657   23.5353 N.3     1  UNL1       -0.2738
     16 C           4.5062   -1.8024   24.5513 C.3     1  UNL1        0.0738
     17 C           5.1154   -1.7382   25.9205 C.3     1  UNL1        0.0372
     18 C           4.4353   -2.8299   22.1661 C.3     1  UNL1        0.0575
     19 C           4.5967   -4.0652   21.3306 C.3     1  UNL1        0.0160
     20 C           3.9874   -4.1294   19.9614 C.3     1  UNL1        0.0014
     21 C           3.2168   -2.9584   19.4277 C.3     1  UNL1        0.0001
     22 C           3.0554   -1.7232   20.2632 C.3     1  UNL1        0.0014
     23 C           3.6646   -1.6590   21.6324 C.3     1  UNL1        0.0160
     24 C           7.4878   -5.2500   31.4465 C.2     1  UNL1        0.2429
     25 N           6.3493   -5.5346   32.3806 N.am    1  UNL1       -0.3253
     26 O           8.2016   -6.3813   30.7677 O.2     1  UNL1       -0.2704
     27 H           5.8808   -4.7921   32.8262 H       1  UNL1        0.1453
     28 H           6.0705   -6.4638   32.5483 H       1  UNL1        0.1453
@<TRIPOS>BOND
     1     2     1    1
     2     2     3    1
     3     3     4   ar
     4     4     5   ar
     5     5     6   ar
     6     6     7   ar
     7     7    24    1
     8    24    25   am
     9    24    26    2
    10     7     8   ar
    11     8     9    1
    12     9    10    2
    13     9    11   am
    14    11    12    1
    15    12    13    1
    16    13    14    1
    17    14    15    1
    18    15    18    1
    19    18    19    1
    20    19    20    1
    21    20    21    1
    22    21    22    1
    23    22    23    1
    24    15    16    1
    25    16    17    1
    26    11     2    1
    27    17    12    1
    28     8     3   ar
    29    23    18    1
    30    25    27    1
    31    25    28    1
@<TRIPOS>MOLECULE
*****
 28 31 0 0 0
SMALL
GASTEIGER

@<TRIPOS>ATOM
      1 C           5.6854   -1.6686   26.5094 C.3     1  UNL1        0.0264
      2 C           6.2357   -3.0501   26.3126 C.3     1  UNL1        0.0983
      3 C           6.6590   -3.9935   27.3992 C.ar    1  UNL1        0.0003
      4 C           6.6653   -3.8652   28.8937 C.ar    1  UNL1       -0.0025
      5 C           7.1569   -5.0005   29.7418 C.ar    1  UNL1       -0.0001
      6 C           7.6422   -6.2642   29.0954 C.ar    1  UNL1        0.0046
      7 C           7.6359   -6.3925   27.6010 C.ar    1  UNL1        0.0572
      8 C           7.1443   -5.2571   26.7529 C.ar    1  UNL1        0.0555
      9 C           7.0209   -5.0946   25.2668 C.2     1  UNL1        0.2490
     10 O           7.3935   -6.1168   24.2342 O.2     1  UNL1       -0.2699
     11 N           6.4593   -3.7306   24.9947 N.am    1  UNL1       -0.2755
     12 C           6.1719   -3.1492   23.6422 C.3     1  UNL1        0.0786
     13 C           4.8026   -3.2820   23.0443 C.3     1  UNL1        0.0372
     14 C           4.5152   -2.7006   21.6918 C.3     1  UNL1        0.0738
     15 N           5.5970   -1.9863   20.9371 N.3     1  UNL1       -0.2738
     16 C           6.9662   -1.8535   21.5350 C.3     1  UNL1        0.0738
     17 C           7.2537   -2.4349   22.8875 C.3     1  UNL1        0.0372
     18 C           5.3095   -1.4049   19.5846 C.3     1  UNL1        0.0575
     19 C           3.8972   -1.3310   19.0847 C.3     1  UNL1        0.0160
     20 C           3.6098   -0.7496   17.7322 C.3     1  UNL1        0.0014
     21 C           4.7346   -0.2421   16.8796 C.3     1  UNL1        0.0001
     22 C           6.1469   -0.3159   17.3794 C.3     1  UNL1        0.0014
     23 C           6.4344   -0.8974   18.7319 C.3     1  UNL1        0.0160
     24 C           8.1211   -7.6561   26.9546 C.2     1  UNL1        0.2429
     25 N           7.2348   -8.8655   26.9130 N.am    1  UNL1       -0.3253
     26 O           9.4927   -7.7104   26.3499 O.2     1  UNL1       -0.2704
     27 H           6.3345   -8.8299   27.3099 H       1  UNL1        0.1453
     28 H           7.5533   -9.6948   26.4888 H       1  UNL1        0.1453
@<TRIPOS>BOND
     1     2     1    1
     2     2     3    1
     3     3     4   ar
     4     4     5   ar
     5     5     6   ar
     6     6     7   ar
     7     7    24    1
     8    24    25   am
     9    24    26    2
    10     7     8   ar
    11     8     9    1
    12     9    10    2
    13     9    11   am
    14    11    12    1
    15    12    13    1
    16    13    14    1
    17    14    15    1
    18    15    18    1
    19    18    19    1
    20    19    20    1
    21    20    21    1
    22    21    22    1
    23    22    23    1
    24    15    16    1
    25    16    17    1
    26    11     2    1
    27    17    12    1
    28     8     3   ar
    29    23    18    1
    30    25    27    1
    31    25    28    1
@<TRIPOS>MOLECULE
*****
 28 31 0 0 0
SMALL
GASTEIGER

@<TRIPOS>ATOM
      1 C           2.2115    5.4012   19.4426 C.3     1  UNL1        0.0264
      2 C           2.2986    3.9462   19.0887 C.3     1  UNL1        0.0983
      3 C           3.5087    3.2400   18.5531 C.ar    1  UNL1        0.0003
      4 C           4.8918    3.7227   18.2307 C.ar    1  UNL1       -0.0025
      5 C           5.9150    2.7646   17.6967 C.ar    1  UNL1       -0.0001
      6 C           5.5551    1.3239   17.4852 C.ar    1  UNL1        0.0046
      7 C           4.1720    0.8412   17.8076 C.ar    1  UNL1        0.0572
      8 C           3.1488    1.7992   18.3415 C.ar    1  UNL1        0.0555
      9 C           1.7163    1.6150   18.7464 C.2     1  UNL1        0.2490
     10 O           0.9447    0.3296   18.6980 O.2     1  UNL1       -0.2699
     11 N           1.1908    2.9419   19.2081 N.am    1  UNL1       -0.2755
     12 C          -0.1986    3.2164   19.7026 C.3     1  UNL1        0.0786
     13 C          -0.5442    2.9729   21.1417 C.3     1  UNL1        0.0372
     14 C          -1.9335    3.2474   21.6361 C.3     1  UNL1        0.0738
     15 N          -2.9772    3.7653   20.6914 N.3     1  UNL1       -0.2738
     16 C          -2.6315    4.0087   19.2523 C.3     1  UNL1        0.0738
     17 C          -1.2422    3.7342   18.7578 C.3     1  UNL1        0.0372
     18 C          -4.3665    4.0397   21.1858 C.3     1  UNL1        0.0575
     19 C          -5.3864    4.6385   20.2632 C.3     1  UNL1        0.0160
     20 C          -6.7757    4.9129   20.7576 C.3     1  UNL1        0.0014
     21 C          -7.1452    4.5886   22.1747 C.3     1  UNL1        0.0001
     22 C          -6.1253    3.9898   23.0974 C.3     1  UNL1        0.0014
     23 C          -4.7360    3.7154   22.6029 C.3     1  UNL1        0.0160
     24 C           3.8121   -0.5996   17.5960 C.2     1  UNL1        0.2429
     25 N           3.5223   -1.4811   18.7745 N.am    1  UNL1       -0.3253
     26 O           3.7421   -1.1588   16.2060 O.2     1  UNL1       -0.2704
     27 H           3.5683   -1.1140   19.6869 H       1  UNL1        0.1453
     28 H           3.2861   -2.4267   18.6357 H       1  UNL1        0.1453
@<TRIPOS>BOND
     1     2     1    1
     2     2     3    1
     3     3     4   ar
     4     4     5   ar
     5     5     6   ar
     6     6     7   ar
     7     7    24    1
     8    24    25   am
     9    24    26    2
    10     7     8   ar
    11     8     9    1
    12     9    10    2
    13     9    11   am
    14    11    12    1
    15    12    13    1
    16    13    14    1
    17    14    15    1
    18    15    18    1
    19    18    19    1
    20    19    20    1
    21    20    21    1
    22    21    22    1
    23    22    23    1
    24    15    16    1
    25    16    17    1
    26    11     2    1
    27    17    12    1
    28     8     3   ar
    29    23    18    1
    30    25    27    1
    31    25    28    1
@<TRIPOS>MOLECULE
*****
 28 31 0 0 0
SMALL
GASTEIGER

@<TRIPOS>ATOM
      1 C           8.7626   -7.2822   22.9560 C.3     1  UNL1        0.0264
      2 C           8.3607   -6.5566   24.2059 C.3     1  UNL1        0.0983
      3 C           8.6186   -7.0124   25.6115 C.ar    1  UNL1        0.0003
      4 C           9.2994   -8.2299   26.1629 C.ar    1  UNL1       -0.0025
      5 C           9.4094   -8.4203   27.6467 C.ar    1  UNL1       -0.0001
      6 C           8.8385   -7.3933   28.5790 C.ar    1  UNL1        0.0046
      7 C           8.1577   -6.1758   28.0276 C.ar    1  UNL1        0.0572
      8 C           8.0477   -5.9853   26.5438 C.ar    1  UNL1        0.0555
      9 C           7.4371   -4.8948   25.7144 C.2     1  UNL1        0.2490
     10 O           6.7530   -3.6669   26.2380 O.2     1  UNL1       -0.2699
     11 N           7.6305   -5.2479   24.2694 N.am    1  UNL1       -0.2755
     12 C           7.1739   -4.4350   23.0944 C.3     1  UNL1        0.0786
     13 C           8.1499   -4.0552   22.0205 C.3     1  UNL1        0.0372
     14 C           7.6933   -3.2423   20.8455 C.3     1  UNL1        0.0738
     15 N           6.2608   -2.8092   20.7443 N.3     1  UNL1       -0.2738
     16 C           5.2849   -3.1890   21.8182 C.3     1  UNL1        0.0738
     17 C           5.7414   -4.0019   22.9933 C.3     1  UNL1        0.0372
     18 C           5.8042   -1.9963   19.5693 C.3     1  UNL1        0.0575
     19 C           6.8123   -1.3218   18.6868 C.3     1  UNL1        0.0160
     20 C           6.3557   -0.5089   17.5118 C.3     1  UNL1        0.0014
     21 C           4.8910   -0.3704   17.2192 C.3     1  UNL1        0.0001
     22 C           3.8830   -1.0449   18.1017 C.3     1  UNL1        0.0014
     23 C           4.3396   -1.8578   19.2768 C.3     1  UNL1        0.0160
     24 C           7.5868   -5.1487   28.9600 C.2     1  UNL1        0.2429
     25 N           8.1447   -3.7565   28.9745 N.am    1  UNL1       -0.3253
     26 O           6.4580   -5.5140   29.8777 O.2     1  UNL1       -0.2704
     27 H           8.8856   -3.5167   28.3722 H       1  UNL1        0.1453
     28 H           7.7700   -3.0824   29.5865 H       1  UNL1        0.1453
@<TRIPOS>BOND
     1     2     1    1
     2     2     3    1
     3     3     4   ar
     4     4     5   ar
     5     5     6   ar
     6     6     7   ar
     7     7    24    1
     8    24    25   am
     9    24    26    2
    10     7     8   ar
    11     8     9    1
    12     9    10    2
    13     9    11   am
    14    11    12    1
    15    12    13    1
    16    13    14    1
    17    14    15    1
    18    15    18    1
    19    18    19    1
    20    19    20    1
    21    20    21    1
    22    21    22    1
    23    22    23    1
    24    15    16    1
    25    16    17    1
    26    11     2    1
    27    17    12    1
    28     8     3   ar
    29    23    18    1
    30    25    27    1
    31    25    28    1
@<TRIPOS>MOLECULE
*****
 28 31 0 0 0
SMALL
GASTEIGER

@<TRIPOS>ATOM
      1 C          -6.9205  -20.9703   19.9701 C.3     1  UNL1        0.0264
      2 C          -6.0711  -19.9677   20.6936 C.3     1  UNL1        0.0983
      3 C          -4.6013  -19.7475   20.4908 C.ar    1  UNL1        0.0003
      4 C          -3.6045  -20.4022   19.5810 C.ar    1  UNL1       -0.0025
      5 C          -2.1705  -19.9624   19.5992 C.ar    1  UNL1       -0.0001
      6 C          -1.7334  -18.8680   20.5272 C.ar    1  UNL1        0.0046
      7 C          -2.7302  -18.2133   21.4369 C.ar    1  UNL1        0.0572
      8 C          -4.1642  -18.6531   21.4187 C.ar    1  UNL1        0.0555
      9 C          -5.3639  -18.1969   22.1950 C.2     1  UNL1        0.2490
     10 O          -5.3818  -17.1177   23.2366 O.2     1  UNL1       -0.2699
     11 N          -6.5424  -19.0094   21.7469 N.am    1  UNL1       -0.2755
     12 C          -7.9459  -18.8853   22.2616 C.3     1  UNL1        0.0786
     13 C          -8.5506  -19.9973   23.0664 C.3     1  UNL1        0.0372
     14 C          -9.9540  -19.8732   23.5812 C.3     1  UNL1        0.0738
     15 N         -10.7527  -18.6372   23.2911 N.3     1  UNL1       -0.2738
     16 C         -10.1480  -17.5252   22.4863 C.3     1  UNL1        0.0738
     17 C          -8.7446  -17.6492   21.9716 C.3     1  UNL1        0.0372
     18 C         -12.1562  -18.5131   23.8059 C.3     1  UNL1        0.0575
     19 C         -12.4496  -18.7724   25.2538 C.3     1  UNL1        0.0160
     20 C         -13.8531  -18.6484   25.7686 C.3     1  UNL1        0.0014
     21 C         -14.9631  -18.2649   24.8354 C.3     1  UNL1        0.0001
     22 C         -14.6696  -18.0056   23.3874 C.3     1  UNL1        0.0014
     23 C         -13.2662  -18.1297   22.8727 C.3     1  UNL1        0.0160
     24 C          -2.2931  -17.1188   22.3649 C.2     1  UNL1        0.2429
     25 N          -2.0827  -17.4098   23.8212 N.am    1  UNL1       -0.3253
     26 O          -2.0665  -15.7335   21.8365 O.2     1  UNL1       -0.2704
     27 H          -2.2314  -18.3191   24.1681 H       1  UNL1        0.1453
     28 H          -1.7958  -16.6914   24.4303 H       1  UNL1        0.1453
@<TRIPOS>BOND
     1     2     1    1
     2     2     3    1
     3     3     4   ar
     4     4     5   ar
     5     5     6   ar
     6     6     7   ar
     7     7    24    1
     8    24    25   am
     9    24    26    2
    10     7     8   ar
    11     8     9    1
    12     9    10    2
    13     9    11   am
    14    11    12    1
    15    12    13    1
    16    13    14    1
    17    14    15    1
    18    15    18    1
    19    18    19    1
    20    19    20    1
    21    20    21    1
    22    21    22    1
    23    22    23    1
    24    15    16    1
    25    16    17    1
    26    11     2    1
    27    17    12    1
    28     8     3   ar
    29    23    18    1
    30    25    27    1
    31    25    28    1
@<TRIPOS>MOLECULE
*****
 28 31 0 0 0
SMALL
GASTEIGER

@<TRIPOS>ATOM
      1 C           4.7339    0.1986   36.6247 C.3     1  UNL1        0.0264
      2 C           3.9643    1.0473   35.6565 C.3     1  UNL1        0.0983
      3 C           3.1557    2.2633   35.9991 C.ar    1  UNL1        0.0003
      4 C           2.8850    2.9540   37.3028 C.ar    1  UNL1       -0.0025
      5 C           2.0184    4.1778   37.3374 C.ar    1  UNL1       -0.0001
      6 C           1.4226    4.7110   36.0682 C.ar    1  UNL1        0.0046
      7 C           1.6933    4.0204   34.7646 C.ar    1  UNL1        0.0572
      8 C           2.5599    2.7965   34.7300 C.ar    1  UNL1        0.0555
      9 C           3.0003    1.9100   33.6030 C.2     1  UNL1        0.2490
     10 O           2.6365    2.0755   32.1572 O.2     1  UNL1       -0.2699
     11 N           3.8682    0.8289   34.1756 N.am    1  UNL1       -0.2755
     12 C           4.5249   -0.2765   33.4029 C.3     1  UNL1        0.0786
     13 C           4.1910   -1.7065   33.7089 C.3     1  UNL1        0.0372
     14 C           4.8476   -2.8118   32.9363 C.3     1  UNL1        0.0738
     15 N           5.8381   -2.4873   31.8576 N.3     1  UNL1       -0.2738
     16 C           6.1719   -1.0573   31.5516 C.3     1  UNL1        0.0738
     17 C           5.5153    0.0481   32.3243 C.3     1  UNL1        0.0372
     18 C           6.4947   -3.5926   31.0850 C.3     1  UNL1        0.0575
     19 C           6.9718   -4.8241   31.7961 C.3     1  UNL1        0.0160
     20 C           7.6284   -5.9295   31.0235 C.3     1  UNL1        0.0014
     21 C           7.8079   -5.8034   29.5397 C.3     1  UNL1        0.0001
     22 C           7.3309   -4.5719   28.8285 C.3     1  UNL1        0.0014
     23 C           6.6743   -3.4665   29.6011 C.3     1  UNL1        0.0160
     24 C           1.0975    4.5536   33.4954 C.2     1  UNL1        0.2429
     25 N           0.0668    3.7527   32.7564 N.am    1  UNL1       -0.3253
     26 O           1.5324    5.8876   32.9653 O.2     1  UNL1       -0.2704
     27 H          -0.2186    2.8771   33.1043 H       1  UNL1        0.1453
     28 H          -0.3242    4.1026   31.9234 H       1  UNL1        0.1453
@<TRIPOS>BOND
     1     2     1    1
     2     2     3    1
     3     3     4   ar
     4     4     5   ar
     5     5     6   ar
     6     6     7   ar
     7     7    24    1
     8    24    25   am
     9    24    26    2
    10     7     8   ar
    11     8     9    1
    12     9    10    2
    13     9    11   am
    14    11    12    1
    15    12    13    1
    16    13    14    1
    17    14    15    1
    18    15    18    1
    19    18    19    1
    20    19    20    1
    21    20    21    1
    22    21    22    1
    23    22    23    1
    24    15    16    1
    25    16    17    1
    26    11     2    1
    27    17    12    1
    28     8     3   ar
    29    23    18    1
    30    25    27    1
    31    25    28    1
@<TRIPOS>MOLECULE
*****
 28 31 0 0 0
SMALL
GASTEIGER

@<TRIPOS>ATOM
      1 C           4.1347   -1.1480   25.6423 C.3     1  UNL1        0.0264
      2 C           3.3125   -0.6390   24.4956 C.3     1  UNL1        0.0983
      3 C           3.3647   -1.1398   23.0826 C.ar    1  UNL1        0.0003
      4 C           4.1830   -2.2128   22.4276 C.ar    1  UNL1       -0.0025
      5 C           4.0148   -2.4962   20.9643 C.ar    1  UNL1       -0.0001
      6 C           3.0284   -1.7066   20.1560 C.ar    1  UNL1        0.0046
      7 C           2.2101   -0.6336   20.8109 C.ar    1  UNL1        0.0572
      8 C           2.3782   -0.3502   22.2743 C.ar    1  UNL1        0.0555
      9 C           1.7164    0.6386   23.1877 C.2     1  UNL1        0.2490
     10 O           0.6622    1.6315   22.7968 O.2     1  UNL1       -0.2699
     11 N           2.2938    0.4601   24.5605 N.am    1  UNL1       -0.2755
     12 C           1.9184    1.2432   25.7836 C.3     1  UNL1        0.0786
     13 C           0.5400    1.1168   26.3613 C.3     1  UNL1        0.0372
     14 C           0.1646    1.8999   27.5843 C.3     1  UNL1        0.0738
     15 N           1.1677    2.8095   28.2296 N.3     1  UNL1       -0.2738
     16 C           2.5462    2.9359   27.6520 C.3     1  UNL1        0.0738
     17 C           2.9215    2.1527   26.4289 C.3     1  UNL1        0.0372
     18 C           0.7923    3.5926   29.4527 C.3     1  UNL1        0.0575
     19 C           0.4482    5.0478   29.3351 C.3     1  UNL1        0.0160
     20 C           0.0728    5.8309   30.5582 C.3     1  UNL1        0.0014
     21 C           0.0416    5.1588   31.8988 C.3     1  UNL1        0.0001
     22 C           0.3857    3.7036   32.0163 C.3     1  UNL1        0.0014
     23 C           0.7611    2.9205   30.7933 C.3     1  UNL1        0.0160
     24 C           1.2236    0.1560   20.0026 C.2     1  UNL1        0.2429
     25 N          -0.2272    0.1583   20.3835 N.am    1  UNL1       -0.3253
     26 O           1.6879    0.9433   18.8133 O.2     1  UNL1       -0.2704
     27 H          -0.5320   -0.3584   21.1641 H       1  UNL1        0.1453
     28 H          -0.8746    0.6766   19.8530 H       1  UNL1        0.1453
@<TRIPOS>BOND
     1     2     1    1
     2     2     3    1
     3     3     4   ar
     4     4     5   ar
     5     5     6   ar
     6     6     7   ar
     7     7    24    1
     8    24    25   am
     9    24    26    2
    10     7     8   ar
    11     8     9    1
    12     9    10    2
    13     9    11   am
    14    11    12    1
    15    12    13    1
    16    13    14    1
    17    14    15    1
    18    15    18    1
    19    18    19    1
    20    19    20    1
    21    20    21    1
    22    21    22    1
    23    22    23    1
    24    15    16    1
    25    16    17    1
    26    11     2    1
    27    17    12    1
    28     8     3   ar
    29    23    18    1
    30    25    27    1
    31    25    28    1
