@<TRIPOS>MOLECULE
*****
 31 34 0 0 0
SMALL
GASTEIGER

@<TRIPOS>ATOM
      1 C          -7.9955  -19.3424   21.3711 C.ar    1  UNL1        0.0191
      2 C          -8.7941  -19.0900   20.1267 C.ar    1  UNL1        0.0023
      3 C         -10.2918  -19.1614   20.1693 C.ar    1  UNL1        0.0367
      4 C         -10.9908  -19.4852   21.4563 C.ar    1  UNL1        0.1385
      5 C         -10.1922  -19.7376   22.7007 C.ar    1  UNL1        0.0367
      6 C          -8.6945  -19.6662   22.6581 C.ar    1  UNL1        0.0023
      7 C          -3.5716  -16.8891   22.5587 C.ar    1  UNL1        0.1737
      8 C          -2.0739  -16.8177   22.5160 C.ar    1  UNL1        0.0401
      9 C          -1.2905  -17.9016   21.8368 C.ar    1  UNL1        0.0046
     10 C          -2.0047  -19.0569   21.2003 C.ar    1  UNL1        0.0217
     11 C          -3.5024  -19.1283   21.2430 C.ar    1  UNL1        0.1426
     12 C          -4.2858  -18.0444   21.9222 C.ar    1  UNL1        0.1895
     13 O          -5.7836  -18.1158   21.9649 O.3     1  UNL1       -0.4686
     14 C          -6.4978  -19.2710   21.3284 C.3     1  UNL1        0.2104
     15 C          -5.7143  -20.3550   20.6492 C.3     1  UNL1        0.1779
     16 C          -6.4286  -21.5103   20.0126 C.3     1  UNL1        0.0300
     17 S          -4.2167  -20.2836   20.6065 S.O2    1  UNL1        0.0138
     18 O          -2.7956  -20.6587   20.3065 O.2     1  UNL1       -0.1685
     19 O          -4.4374  -21.5692   19.8658 O.2     1  UNL1       -0.1685
     20 C          -4.9712  -16.0551   24.5824 C.3     1  UNL1        0.2526
     21 O          -4.3550  -15.8052   23.2379 O.3     1  UNL1       -0.4683
     22 O         -12.4886  -19.5566   21.4990 O.3     1  UNL1       -0.4754
     23 C         -13.2888  -18.3307   21.8258 C.3     1  UNL1        0.2068
     24 C         -12.9988  -17.5575   23.0779 C.3     1  UNL1        0.0646
     25 C         -12.3316  -16.2167   22.9939 C.3     1  UNL1        0.0759
     26 N         -10.8414  -16.1284   22.8475 N.3     1  UNL1       -0.2738
     27 C          -9.8356  -16.3024   23.9468 C.3     1  UNL1        0.0721
     28 C          -8.4679  -16.1322   23.3550 C.3     1  UNL1        0.0187
     29 C          -8.6282  -15.8530   21.8899 C.3     1  UNL1        0.0174
     30 C         -10.0952  -15.8507   21.5763 C.3     1  UNL1        0.0576
     31 C         -10.7082  -15.6124   20.2282 C.3     1  UNL1        0.0173
@<TRIPOS>BOND
     1    20    21    1
     2    21     7    1
     3     7     8   ar
     4     8     9   ar
     5     9    10   ar
     6    10    11   ar
     7    11    12   ar
     8    12    13    1
     9    13    14    1
    10    14     1    1
    11     1     2   ar
    12     2     3   ar
    13     3     4   ar
    14     4    22    1
    15    22    23    1
    16    23    24    1
    17    24    25    1
    18    25    26    1
    19    26    27    1
    20    27    28    1
    21    28    29    1
    22    29    30    1
    23    30    31    1
    24     4     5   ar
    25     5     6   ar
    26    14    15    1
    27    15    16    1
    28    15    17    1
    29    17    18    2
    30    17    19    2
    31    12     7   ar
    32     6     1   ar
    33    17    11    1
    34    30    26    1
@<TRIPOS>MOLECULE
*****
 31 34 0 0 0
SMALL
GASTEIGER

@<TRIPOS>ATOM
      1 C          -7.5965  -18.8151   22.7193 C.ar    1  UNL1        0.0191
      2 C          -8.2332  -20.0905   23.1863 C.ar    1  UNL1        0.0023
      3 C          -9.5468  -20.0520   23.9093 C.ar    1  UNL1        0.0367
      4 C         -10.2237  -18.7382   24.1654 C.ar    1  UNL1        0.1385
      5 C          -9.5870  -17.4628   23.6984 C.ar    1  UNL1        0.0367
      6 C          -8.2734  -17.5013   22.9754 C.ar    1  UNL1        0.0023
      7 C          -2.9168  -16.7627   21.7765 C.ar    1  UNL1        0.1737
      8 C          -1.6032  -16.8013   21.0535 C.ar    1  UNL1        0.0401
      9 C          -1.3157  -17.9046   20.0787 C.ar    1  UNL1        0.0046
     10 C          -2.3418  -18.9693   19.8271 C.ar    1  UNL1        0.0217
     11 C          -3.6554  -18.9307   20.5501 C.ar    1  UNL1        0.1426
     12 C          -3.9429  -17.8275   21.5249 C.ar    1  UNL1        0.1895
     13 O          -5.2566  -17.7889   22.2479 O.3     1  UNL1       -0.4686
     14 C          -6.2827  -18.8537   21.9962 C.3     1  UNL1        0.2104
     15 C          -5.9952  -19.9569   21.0215 C.3     1  UNL1        0.1779
     16 C          -7.0215  -21.0217   20.7698 C.3     1  UNL1        0.0300
     17 S          -4.6816  -19.9955   20.2985 S.O2    1  UNL1        0.0138
     18 O          -3.5930  -20.4599   19.3768 O.2     1  UNL1       -0.1685
     19 O          -5.3297  -21.2215   19.7267 O.2     1  UNL1       -0.1685
     20 C          -4.4932  -15.6535   23.5185 C.3     1  UNL1        0.2526
     21 O          -3.2043  -15.6595   22.7513 O.3     1  UNL1       -0.4683
     22 O         -11.5375  -18.6997   24.8884 O.3     1  UNL1       -0.4754
     23 C         -12.8175  -18.5972   24.1132 C.3     1  UNL1        0.2068
     24 C         -13.0325  -17.4523   23.1683 C.3     1  UNL1        0.0646
     25 C         -13.1276  -17.7053   21.6928 C.3     1  UNL1        0.0759
     26 N         -11.9373  -18.2254   20.9428 N.3     1  UNL1       -0.2738
     27 C         -11.4356  -19.6390   20.9560 C.3     1  UNL1        0.0721
     28 C         -10.2280  -19.7106   20.0692 C.3     1  UNL1        0.0187
     29 C          -9.9832  -18.3412   19.5078 C.3     1  UNL1        0.0174
     30 C         -11.0397  -17.4234   20.0478 C.3     1  UNL1        0.0576
     31 C         -11.1748  -15.9603   19.7458 C.3     1  UNL1        0.0173
@<TRIPOS>BOND
     1    20    21    1
     2    21     7    1
     3     7     8   ar
     4     8     9   ar
     5     9    10   ar
     6    10    11   ar
     7    11    12   ar
     8    12    13    1
     9    13    14    1
    10    14     1    1
    11     1     2   ar
    12     2     3   ar
    13     3     4   ar
    14     4    22    1
    15    22    23    1
    16    23    24    1
    17    24    25    1
    18    25    26    1
    19    26    27    1
    20    27    28    1
    21    28    29    1
    22    29    30    1
    23    30    31    1
    24     4     5   ar
    25     5     6   ar
    26    14    15    1
    27    15    16    1
    28    15    17    1
    29    17    18    2
    30    17    19    2
    31    12     7   ar
    32     6     1   ar
    33    17    11    1
    34    30    26    1
@<TRIPOS>MOLECULE
*****
 31 34 0 0 0
SMALL
GASTEIGER

@<TRIPOS>ATOM
      1 C         -14.5163   -7.0142   18.6336 C.ar    1  UNL1        0.0191
      2 C         -15.5214   -7.2639   19.7186 C.ar    1  UNL1        0.0023
      3 C         -16.3532   -8.5119   19.6977 C.ar    1  UNL1        0.0367
      4 C         -16.1798   -9.5102   18.5917 C.ar    1  UNL1        0.1385
      5 C         -15.1747   -9.2605   17.5067 C.ar    1  UNL1        0.0367
      6 C         -14.3429   -8.0125   17.5276 C.ar    1  UNL1        0.0023
      7 C         -14.1657   -1.8354   18.3943 C.ar    1  UNL1        0.1737
      8 C         -13.3338   -0.5873   18.4153 C.ar    1  UNL1        0.0401
      9 C         -11.8455   -0.6806   18.5769 C.ar    1  UNL1        0.0046
     10 C         -11.1890   -2.0219   18.7176 C.ar    1  UNL1        0.0217
     11 C         -12.0208   -3.2699   18.6966 C.ar    1  UNL1        0.1426
     12 C         -13.5091   -3.1767   18.5349 C.ar    1  UNL1        0.1895
     13 O         -14.3410   -4.4248   18.5139 O.3     1  UNL1       -0.4686
     14 C         -13.6844   -5.7661   18.6546 C.3     1  UNL1        0.2104
     15 C         -12.1961   -5.8594   18.8163 C.3     1  UNL1        0.1779
     16 C         -11.5396   -7.2008   18.9569 C.3     1  UNL1        0.0300
     17 S         -11.3643   -4.6113   18.8373 S.O2    1  UNL1        0.0138
     18 O         -10.1590   -3.7218   18.9167 O.2     1  UNL1       -0.1685
     19 O         -10.2892   -5.6438   19.0055 O.2     1  UNL1       -0.1685
     20 C         -16.5490   -1.8915   19.4270 C.3     1  UNL1        0.2526
     21 O         -15.6540   -1.7421   18.2326 O.3     1  UNL1       -0.4683
     22 O         -17.0117  -10.7584   18.5707 O.3     1  UNL1       -0.4754
     23 C         -18.4662  -10.6843   18.2117 C.3     1  UNL1        0.2068
     24 C         -18.9117   -9.8353   17.0582 C.3     1  UNL1        0.0646
     25 C         -19.8363   -8.6775   17.2921 C.3     1  UNL1        0.0759
     26 N         -19.3118   -7.4092   17.8972 N.3     1  UNL1       -0.2738
     27 C         -19.7354   -6.8169   19.2087 C.3     1  UNL1        0.0721
     28 C         -18.9570   -5.5520   19.4191 C.3     1  UNL1        0.0187
     29 C         -18.0523   -5.3626   18.2377 C.3     1  UNL1        0.0174
     30 C         -18.2716   -6.5104   17.2971 C.3     1  UNL1        0.0576
     31 C         -17.5732   -6.7222   15.9866 C.3     1  UNL1        0.0173
@<TRIPOS>BOND
     1    20    21    1
     2    21     7    1
     3     7     8   ar
     4     8     9   ar
     5     9    10   ar
     6    10    11   ar
     7    11    12   ar
     8    12    13    1
     9    13    14    1
    10    14     1    1
    11     1     2   ar
    12     2     3   ar
    13     3     4   ar
    14     4    22    1
    15    22    23    1
    16    23    24    1
    17    24    25    1
    18    25    26    1
    19    26    27    1
    20    27    28    1
    21    28    29    1
    22    29    30    1
    23    30    31    1
    24     4     5   ar
    25     5     6   ar
    26    14    15    1
    27    15    16    1
    28    15    17    1
    29    17    18    2
    30    17    19    2
    31    12     7   ar
    32     6     1   ar
    33    17    11    1
    34    30    26    1
@<TRIPOS>MOLECULE
*****
 31 34 0 0 0
SMALL
GASTEIGER

@<TRIPOS>ATOM
      1 C          -8.2838  -18.3292   23.3670 C.ar    1  UNL1        0.0191
      2 C          -8.8343  -19.6578   23.7935 C.ar    1  UNL1        0.0023
      3 C         -10.2450  -19.7596   24.2931 C.ar    1  UNL1        0.0367
      4 C         -11.1051  -18.5329   24.3661 C.ar    1  UNL1        0.1385
      5 C         -10.5545  -17.2044   23.9396 C.ar    1  UNL1        0.0367
      6 C          -9.1438  -17.1025   23.4400 C.ar    1  UNL1        0.0023
      7 C          -4.3656  -20.2297   20.5321 C.ar    1  UNL1        0.1737
      8 C          -2.9549  -20.1279   20.0326 C.ar    1  UNL1        0.0401
      9 C          -2.0925  -18.9741   20.4510 C.ar    1  UNL1        0.0046
     10 C          -2.6408  -17.9221   21.3689 C.ar    1  UNL1        0.0217
     11 C          -4.0515  -18.0239   21.8684 C.ar    1  UNL1        0.1426
     12 C          -4.9139  -19.1777   21.4500 C.ar    1  UNL1        0.1895
     13 O          -6.3247  -19.2795   21.9496 O.3     1  UNL1       -0.4686
     14 C          -6.8730  -18.2275   22.8675 C.3     1  UNL1        0.2104
     15 C          -6.0106  -17.0737   23.2859 C.3     1  UNL1        0.1779
     16 C          -6.5590  -16.0216   24.2038 C.3     1  UNL1        0.0300
     17 S          -4.5999  -16.9719   22.7864 S.O2    1  UNL1        0.0138
     18 O          -3.2122  -16.4406   22.5809 O.2     1  UNL1       -0.1685
     19 O          -4.6663  -15.7353   23.6329 O.2     1  UNL1       -0.1685
     20 C          -6.6223  -21.1369   19.6188 C.3     1  UNL1        0.2526
     21 O          -5.2280  -21.3835   20.1137 O.3     1  UNL1       -0.4683
     22 O         -12.5159  -18.6346   24.8656 O.3     1  UNL1       -0.4754
     23 C         -13.6431  -18.0774   24.0478 C.3     1  UNL1        0.2068
     24 C         -13.3508  -17.1952   22.8704 C.3     1  UNL1        0.0646
     25 C         -13.3106  -17.7774   21.4886 C.3     1  UNL1        0.0759
     26 N         -12.0073  -18.2393   20.9071 N.3     1  UNL1       -0.2738
     27 C         -11.4248  -19.6160   21.0317 C.3     1  UNL1        0.0721
     28 C         -10.1152  -19.6332   20.3004 C.3     1  UNL1        0.0187
     29 C          -9.8884  -18.2672   19.7237 C.3     1  UNL1        0.0174
     30 C         -11.0578  -17.4057   20.0987 C.3     1  UNL1        0.0576
     31 C         -11.2448  -15.9638   19.7300 C.3     1  UNL1        0.0173
@<TRIPOS>BOND
     1    20    21    1
     2    21     7    1
     3     7     8   ar
     4     8     9   ar
     5     9    10   ar
     6    10    11   ar
     7    11    12   ar
     8    12    13    1
     9    13    14    1
    10    14     1    1
    11     1     2   ar
    12     2     3   ar
    13     3     4   ar
    14     4    22    1
    15    22    23    1
    16    23    24    1
    17    24    25    1
    18    25    26    1
    19    26    27    1
    20    27    28    1
    21    28    29    1
    22    29    30    1
    23    30    31    1
    24     4     5   ar
    25     5     6   ar
    26    14    15    1
    27    15    16    1
    28    15    17    1
    29    17    18    2
    30    17    19    2
    31    12     7   ar
    32     6     1   ar
    33    17    11    1
    34    30    26    1
@<TRIPOS>MOLECULE
*****
 31 34 0 0 0
SMALL
GASTEIGER

@<TRIPOS>ATOM
      1 C           6.0322   -2.9625   23.5342 C.ar    1  UNL1        0.0191
      2 C           4.6343   -3.0757   23.0020 C.ar    1  UNL1        0.0023
      3 C           3.8969   -1.8453   22.5636 C.ar    1  UNL1        0.0367
      4 C           4.5572   -0.5018   22.6574 C.ar    1  UNL1        0.1385
      5 C           5.9551   -0.3886   23.1896 C.ar    1  UNL1        0.0367
      6 C           6.6925   -1.6190   23.6280 C.ar    1  UNL1        0.0023
      7 C           7.2960   -6.3667   27.2511 C.ar    1  UNL1        0.1737
      8 C           8.0335   -7.5971   27.6895 C.ar    1  UNL1        0.0401
      9 C           8.8765   -8.3559   26.7078 C.ar    1  UNL1        0.0046
     10 C           8.9820   -7.8843   25.2879 C.ar    1  UNL1        0.0217
     11 C           8.2446   -6.6539   24.8495 C.ar    1  UNL1        0.1426
     12 C           7.4016   -5.8951   25.8311 C.ar    1  UNL1        0.1895
     13 O           6.6641   -4.6646   25.3927 O.3     1  UNL1       -0.4686
     14 C           6.7697   -4.1930   23.9727 C.3     1  UNL1        0.2104
     15 C           7.6127   -4.9518   22.9911 C.3     1  UNL1        0.1779
     16 C           7.7182   -4.4801   21.5710 C.3     1  UNL1        0.0300
     17 S           8.3501   -6.1822   23.4294 S.O2    1  UNL1        0.0138
     18 O           9.2304   -7.3952   23.3671 O.2     1  UNL1       -0.1685
     19 O           8.7614   -6.1318   21.9878 O.2     1  UNL1       -0.1685
     20 C           6.8689   -5.5245   29.6714 C.3     1  UNL1        0.2526
     21 O           6.4530   -5.6079   28.2327 O.3     1  UNL1       -0.4683
     22 O           3.8198    0.7287   22.2189 O.3     1  UNL1       -0.4754
     23 C           3.9522    1.2195   20.8077 C.3     1  UNL1        0.2068
     24 C           4.8107    0.4718   19.8310 C.3     1  UNL1        0.0646
     25 C           4.1748   -0.3697   18.7645 C.3     1  UNL1        0.0759
     26 N           4.2071   -1.8656   18.8706 N.3     1  UNL1       -0.2738
     27 C           3.0748   -2.7425   19.3169 C.3     1  UNL1        0.0721
     28 C           3.5453   -4.1661   19.2713 C.3     1  UNL1        0.0187
     29 C           4.9683   -4.1691   18.7968 C.3     1  UNL1        0.0174
     30 C           5.3773   -2.7473   18.5492 C.3     1  UNL1        0.0576
     31 C           6.7206   -2.2878   18.0651 C.3     1  UNL1        0.0173
@<TRIPOS>BOND
     1    20    21    1
     2    21     7    1
     3     7     8   ar
     4     8     9   ar
     5     9    10   ar
     6    10    11   ar
     7    11    12   ar
     8    12    13    1
     9    13    14    1
    10    14     1    1
    11     1     2   ar
    12     2     3   ar
    13     3     4   ar
    14     4    22    1
    15    22    23    1
    16    23    24    1
    17    24    25    1
    18    25    26    1
    19    26    27    1
    20    27    28    1
    21    28    29    1
    22    29    30    1
    23    30    31    1
    24     4     5   ar
    25     5     6   ar
    26    14    15    1
    27    15    16    1
    28    15    17    1
    29    17    18    2
    30    17    19    2
    31    12     7   ar
    32     6     1   ar
    33    17    11    1
    34    30    26    1
@<TRIPOS>MOLECULE
*****
 31 34 0 0 0
SMALL
GASTEIGER

@<TRIPOS>ATOM
      1 C           5.5234   -2.1833   22.9124 C.ar    1  UNL1        0.0191
      2 C           4.0516   -2.3159   22.6553 C.ar    1  UNL1        0.0023
      3 C           3.3421   -1.2958   21.8151 C.ar    1  UNL1        0.0367
      4 C           4.1044   -0.1431   21.2320 C.ar    1  UNL1        0.1385
      5 C           5.5763   -0.0105   21.4891 C.ar    1  UNL1        0.0367
      6 C           6.2857   -1.0306   22.3293 C.ar    1  UNL1        0.0023
      7 C           8.4105   -6.4877   23.2823 C.ar    1  UNL1        0.1737
      8 C           9.1199   -7.5078   24.1226 C.ar    1  UNL1        0.0401
      9 C           9.0953   -7.3958   25.6182 C.ar    1  UNL1        0.0046
     10 C           8.3612   -6.2638   26.2736 C.ar    1  UNL1        0.0217
     11 C           7.6518   -5.2437   25.4333 C.ar    1  UNL1        0.1426
     12 C           7.6764   -5.3557   23.9377 C.ar    1  UNL1        0.1895
     13 O           6.9670   -4.3355   23.0974 O.3     1  UNL1       -0.4686
     14 C           6.2329   -3.2035   23.7527 C.3     1  UNL1        0.2104
     15 C           6.2082   -3.0915   25.2483 C.3     1  UNL1        0.1779
     16 C           5.4740   -1.9593   25.9037 C.3     1  UNL1        0.0300
     17 S           6.9176   -4.1116   26.0886 S.O2    1  UNL1        0.0138
     18 O           7.4344   -4.8245   27.3030 O.2     1  UNL1       -0.1685
     19 O           6.3630   -3.2271   27.1657 O.2     1  UNL1       -0.1685
     20 C           9.0342   -5.4993   20.9620 C.3     1  UNL1        0.2526
     21 O           8.4352   -6.5997   21.7867 O.3     1  UNL1       -0.4683
     22 O           3.3950    0.8770   20.3917 O.3     1  UNL1       -0.4754
     23 C           2.6816    0.4542   19.1418 C.3     1  UNL1        0.2068
     24 C           3.4431    0.3025   17.8584 C.3     1  UNL1        0.0646
     25 C           3.8711   -1.0590   17.3967 C.3     1  UNL1        0.0759
     26 N           4.9748   -1.7807   18.1113 N.3     1  UNL1       -0.2738
     27 C           6.4182   -1.3735   18.1440 C.3     1  UNL1        0.0721
     28 C           7.1645   -2.3775   18.9717 C.3     1  UNL1        0.0187
     29 C           6.1824   -3.4052   19.4507 C.3     1  UNL1        0.0174
     30 C           4.8291   -3.0363   18.9189 C.3     1  UNL1        0.0576
     31 C           3.5540   -3.7907   19.1536 C.3     1  UNL1        0.0173
@<TRIPOS>BOND
     1    20    21    1
     2    21     7    1
     3     7     8   ar
     4     8     9   ar
     5     9    10   ar
     6    10    11   ar
     7    11    12   ar
     8    12    13    1
     9    13    14    1
    10    14     1    1
    11     1     2   ar
    12     2     3   ar
    13     3     4   ar
    14     4    22    1
    15    22    23    1
    16    23    24    1
    17    24    25    1
    18    25    26    1
    19    26    27    1
    20    27    28    1
    21    28    29    1
    22    29    30    1
    23    30    31    1
    24     4     5   ar
    25     5     6   ar
    26    14    15    1
    27    15    16    1
    28    15    17    1
    29    17    18    2
    30    17    19    2
    31    12     7   ar
    32     6     1   ar
    33    17    11    1
    34    30    26    1
@<TRIPOS>MOLECULE
*****
 31 34 0 0 0
SMALL
GASTEIGER

@<TRIPOS>ATOM
      1 C           0.4469    1.4522   20.6543 C.ar    1  UNL1        0.0191
      2 C           1.2952    1.8270   21.8333 C.ar    1  UNL1        0.0023
      3 C           2.3105    0.8592   22.3646 C.ar    1  UNL1        0.0367
      4 C           2.4776   -0.4834   21.7169 C.ar    1  UNL1        0.1385
      5 C           1.6293   -0.8582   20.5379 C.ar    1  UNL1        0.0367
      6 C           0.6140    0.1097   20.0066 C.ar    1  UNL1        0.0023
      7 C          -4.3336    3.4845   20.7873 C.ar    1  UNL1        0.1737
      8 C          -5.3489    4.4524   20.2560 C.ar    1  UNL1        0.0401
      9 C          -4.9893    5.3720   19.1269 C.ar    1  UNL1        0.0046
     10 C          -3.6145    5.3238   18.5291 C.ar    1  UNL1        0.0217
     11 C          -2.5992    4.3560   19.0604 C.ar    1  UNL1        0.1426
     12 C          -2.9587    3.4363   20.1895 C.ar    1  UNL1        0.1895
     13 O          -1.9433    2.4684   20.7208 O.3     1  UNL1       -0.4686
     14 C          -0.5685    2.4202   20.1230 C.3     1  UNL1        0.2104
     15 C          -0.2089    3.3399   18.9939 C.3     1  UNL1        0.1779
     16 C           1.1660    3.2916   18.3961 C.3     1  UNL1        0.0300
     17 S          -1.2242    4.3077   18.4626 S.O2    1  UNL1        0.0138
     18 O          -1.8358    5.3894   17.6223 O.2     1  UNL1       -0.1685
     19 O          -0.0617    4.6352   17.5729 O.2     1  UNL1       -0.1685
     20 C          -5.0169    3.1280   23.2684 C.3     1  UNL1        0.2526
     21 O          -4.6931    2.5648   21.9164 O.3     1  UNL1       -0.4683
     22 O           3.4930   -1.4513   22.2482 O.3     1  UNL1       -0.4754
     23 C           4.7595   -0.9432   22.8709 C.3     1  UNL1        0.2068
     24 C           5.8514   -0.3891   22.0045 C.3     1  UNL1        0.0646
     25 C           6.0988   -0.9722   20.6448 C.3     1  UNL1        0.0759
     26 N           5.2155   -0.5922   19.4936 N.3     1  UNL1       -0.2738
     27 C           4.7205    0.7888   19.1805 C.3     1  UNL1        0.0721
     28 C           3.8711    0.7081   17.9468 C.3     1  UNL1        0.0187
     29 C           3.8412   -0.7227   17.4973 C.3     1  UNL1        0.0174
     30 C           4.6721   -1.5264   18.4534 C.3     1  UNL1        0.0576
     31 C           4.9166   -3.0045   18.3817 C.3     1  UNL1        0.0173
@<TRIPOS>BOND
     1    20    21    1
     2    21     7    1
     3     7     8   ar
     4     8     9   ar
     5     9    10   ar
     6    10    11   ar
     7    11    12   ar
     8    12    13    1
     9    13    14    1
    10    14     1    1
    11     1     2   ar
    12     2     3   ar
    13     3     4   ar
    14     4    22    1
    15    22    23    1
    16    23    24    1
    17    24    25    1
    18    25    26    1
    19    26    27    1
    20    27    28    1
    21    28    29    1
    22    29    30    1
    23    30    31    1
    24     4     5   ar
    25     5     6   ar
    26    14    15    1
    27    15    16    1
    28    15    17    1
    29    17    18    2
    30    17    19    2
    31    12     7   ar
    32     6     1   ar
    33    17    11    1
    34    30    26    1
@<TRIPOS>MOLECULE
*****
 31 34 0 0 0
SMALL
GASTEIGER

@<TRIPOS>ATOM
      1 C           5.6645   -2.2920   23.1310 C.ar    1  UNL1        0.0191
      2 C           6.4997   -1.1920   22.5459 C.ar    1  UNL1        0.0023
      3 C           5.8967   -0.2358   21.5600 C.ar    1  UNL1        0.0367
      4 C           4.4584   -0.3797   21.1592 C.ar    1  UNL1        0.1385
      5 C           3.6232   -1.4797   21.7443 C.ar    1  UNL1        0.0367
      6 C           4.2263   -2.4359   22.7302 C.ar    1  UNL1        0.0023
      7 C           6.5288   -3.7380   28.0465 C.ar    1  UNL1        0.1737
      8 C           7.1320   -4.6942   29.0323 C.ar    1  UNL1        0.0401
      9 C           7.9060   -5.8836   28.5463 C.ar    1  UNL1        0.0046
     10 C           8.0770   -6.1168   27.0745 C.ar    1  UNL1        0.0217
     11 C           7.4739   -5.1606   26.0887 C.ar    1  UNL1        0.1426
     12 C           6.6998   -3.9712   26.5747 C.ar    1  UNL1        0.1895
     13 O           6.0967   -3.0150   25.5887 O.3     1  UNL1       -0.4686
     14 C           6.2677   -3.2482   24.1169 C.3     1  UNL1        0.2104
     15 C           7.0417   -4.4376   23.6309 C.3     1  UNL1        0.1779
     16 C           7.2127   -4.6708   22.1590 C.3     1  UNL1        0.0300
     17 S           7.6449   -5.3938   24.6167 S.O2    1  UNL1        0.0138
     18 O           8.3982   -6.5732   25.1566 O.2     1  UNL1       -0.1685
     19 O           8.0775   -6.0366   23.3323 O.2     1  UNL1       -0.1685
     20 C           6.4375   -1.2222   28.6886 C.3     1  UNL1        0.2526
     21 O           5.7548   -2.5487   28.5325 O.3     1  UNL1       -0.4683
     22 O           3.8553    0.5765   20.1733 O.3     1  UNL1       -0.4754
     23 C           2.7968    0.1039   19.2214 C.3     1  UNL1        0.2068
     24 C           3.0378    0.1632   17.7421 C.3     1  UNL1        0.0646
     25 C           3.8112   -0.9284   17.0638 C.3     1  UNL1        0.0759
     26 N           5.0038   -1.5352   17.7416 N.3     1  UNL1       -0.2738
     27 C           6.4012   -0.9902   17.7219 C.3     1  UNL1        0.0721
     28 C           7.2695   -1.9117   18.5262 C.3     1  UNL1        0.0187
     29 C           6.4088   -3.0262   19.0431 C.3     1  UNL1        0.0174
     30 C           5.0085   -2.7935   18.5582 C.3     1  UNL1        0.0576
     31 C           3.8213   -3.6659   18.8403 C.3     1  UNL1        0.0173
@<TRIPOS>BOND
     1    20    21    1
     2    21     7    1
     3     7     8   ar
     4     8     9   ar
     5     9    10   ar
     6    10    11   ar
     7    11    12   ar
     8    12    13    1
     9    13    14    1
    10    14     1    1
    11     1     2   ar
    12     2     3   ar
    13     3     4   ar
    14     4    22    1
    15    22    23    1
    16    23    24    1
    17    24    25    1
    18    25    26    1
    19    26    27    1
    20    27    28    1
    21    28    29    1
    22    29    30    1
    23    30    31    1
    24     4     5   ar
    25     5     6   ar
    26    14    15    1
    27    15    16    1
    28    15    17    1
    29    17    18    2
    30    17    19    2
    31    12     7   ar
    32     6     1   ar
    33    17    11    1
    34    30    26    1
@<TRIPOS>MOLECULE
*****
 31 34 0 0 0
SMALL
GASTEIGER

@<TRIPOS>ATOM
      1 C           5.7634   -2.2082   23.9611 C.ar    1  UNL1        0.0191
      2 C           4.3382   -2.1659   23.4953 C.ar    1  UNL1        0.0023
      3 C           3.6530   -0.8465   23.2963 C.ar    1  UNL1        0.0367
      4 C           4.3931    0.4306   23.5631 C.ar    1  UNL1        0.1385
      5 C           5.8183    0.3884   24.0289 C.ar    1  UNL1        0.0367
      6 C           6.5034   -0.9311   24.2279 C.ar    1  UNL1        0.0023
      7 C           7.1063   -6.1598   27.0565 C.ar    1  UNL1        0.1737
      8 C           7.7915   -7.4792   27.2555 C.ar    1  UNL1        0.0401
      9 C           8.4903   -8.1424   26.1058 C.ar    1  UNL1        0.0046
     10 C           8.5039   -7.4861   24.7571 C.ar    1  UNL1        0.0217
     11 C           7.8188   -6.1666   24.5581 C.ar    1  UNL1        0.1426
     12 C           7.1200   -5.5035   25.7078 C.ar    1  UNL1        0.1895
     13 O           6.4348   -4.1840   25.5088 O.3     1  UNL1       -0.4686
     14 C           6.4485   -3.5277   24.1601 C.3     1  UNL1        0.2104
     15 C           7.1473   -4.1908   23.0104 C.3     1  UNL1        0.1779
     16 C           7.1610   -3.5345   21.6616 C.3     1  UNL1        0.0300
     17 S           7.8325   -5.5103   23.2093 S.O2    1  UNL1        0.0138
     18 O           8.6170   -6.7515   22.9029 O.2     1  UNL1       -0.1685
     19 O           8.1186   -5.2850   21.7542 O.2     1  UNL1       -0.1685
     20 C           7.1911   -4.6772   29.1884 C.3     1  UNL1        0.2526
     21 O           6.4075   -5.4966   28.2063 O.3     1  UNL1       -0.4683
     22 O           3.7079    1.7502   23.3640 O.3     1  UNL1       -0.4754
     23 C           3.0368    2.0573   22.0582 C.3     1  UNL1        0.2068
     24 C           3.8602    2.2572   20.8205 C.3     1  UNL1        0.0646
     25 C           3.5600    1.4635   19.5836 C.3     1  UNL1        0.0759
     26 N           3.6698   -0.0323   19.6072 N.3     1  UNL1       -0.2738
     27 C           4.9191   -0.8285   19.3713 C.3     1  UNL1        0.0721
     28 C           4.5711   -2.2828   19.4892 C.3     1  UNL1        0.0187
     29 C           3.1067   -2.3855   19.7979 C.3     1  UNL1        0.0174
     30 C           2.5497   -0.9945   19.8709 C.3     1  UNL1        0.0576
     31 C           1.1232   -0.6300   20.1572 C.3     1  UNL1        0.0173
@<TRIPOS>BOND
     1    20    21    1
     2    21     7    1
     3     7     8   ar
     4     8     9   ar
     5     9    10   ar
     6    10    11   ar
     7    11    12   ar
     8    12    13    1
     9    13    14    1
    10    14     1    1
    11     1     2   ar
    12     2     3   ar
    13     3     4   ar
    14     4    22    1
    15    22    23    1
    16    23    24    1
    17    24    25    1
    18    25    26    1
    19    26    27    1
    20    27    28    1
    21    28    29    1
    22    29    30    1
    23    30    31    1
    24     4     5   ar
    25     5     6   ar
    26    14    15    1
    27    15    16    1
    28    15    17    1
    29    17    18    2
    30    17    19    2
    31    12     7   ar
    32     6     1   ar
    33    17    11    1
    34    30    26    1
