@<TRIPOS>MOLECULE
*****
 58 63 0 0 0
SMALL
GASTEIGER

@<TRIPOS>ATOM
      1 C           1.4919    0.9388   23.3500 C.ar    1  UNL1        0.0172
      2 C           2.7060    0.1050   23.6339 C.ar    1  UNL1        0.0015
      3 C           3.1281   -0.1469   25.0511 C.ar    1  UNL1        0.0000
      4 C           2.3361    0.4350   26.1843 C.ar    1  UNL1        0.0000
      5 C           1.1220    1.2689   25.9003 C.ar    1  UNL1        0.0000
      6 C           0.6999    1.5208   24.4832 C.ar    1  UNL1        0.0015
      7 C           0.3227    2.3052   19.9102 C.ar    1  UNL1        0.1353
      8 N           0.5175    0.8519   19.5938 N.ar    1  UNL1       -0.2279
      9 C           0.9792    0.1632   20.8438 C.ar    1  UNL1        0.1171
     10 C           1.0697    1.1908   21.9328 C.ar    1  UNL1        0.0769
     11 N           0.6640    2.5146   21.3558 N.ar    1  UNL1       -0.3394
     12 H           0.6280    3.3706   21.8407 H       1  UNL1        0.1671
     13 C          -2.6706    3.5961   19.7580 C.2     1  UNL1        0.2439
     14 O          -2.5093    2.5538   20.8246 O.2     1  UNL1       -0.2731
     15 N          -1.5092    3.9565   18.8798 N.am    1  UNL1       -0.2730
     16 C          -1.5198    4.9737   17.7773 C.3     1  UNL1        0.0939
     17 C          -0.1505    5.0090   17.1660 C.3     1  UNL1        0.0237
     18 C           0.7064    4.0136   17.8906 C.3     1  UNL1        0.0293
     19 C          -0.1333    3.3632   18.9497 C.3     1  UNL1        0.1319
     20 C          -3.9933    4.2779   19.5695 C.3     1  UNL1        0.1512
     21 C          -4.9446    5.2792   21.7700 C.2     1  UNL1        0.4021
     22 O          -5.1856    3.8952   22.2957 O.2     1  UNL1       -0.2264
     23 N          -4.3485    5.4706   20.4069 N.am    1  UNL1       -0.2640
     24 H          -4.1903    6.3790   20.0619 H       1  UNL1        0.1532
     25 C          -6.2018    6.3127   23.7952 C.3     1  UNL1        0.2573
     26 O          -5.2997    6.4720   22.6073 O.3     1  UNL1       -0.4306
     27 C          -4.9610    3.7669   18.5435 C.3     1  UNL1        0.0270
     28 C          -6.2806    3.1988   18.9745 C.3     1  UNL1        0.0022
     29 C          -4.6090    3.8240   17.0864 C.3     1  UNL1        0.0022
     30 C           2.7583    0.1831   27.6015 C.ar    1  UNL1        0.0000
     31 C           4.2087    0.2581   27.9766 C.ar    1  UNL1        0.0000
     32 C           4.6308    0.0061   29.3938 C.ar    1  UNL1        0.0015
     33 C           3.6026   -0.3208   30.4358 C.ar    1  UNL1        0.0172
     34 C           2.1521   -0.3957   30.0606 C.ar    1  UNL1        0.0015
     35 C           1.7300   -0.1438   28.6435 C.ar    1  UNL1        0.0000
     36 C           4.0247   -0.5727   31.8529 C.ar    1  UNL1        0.0769
     37 C           4.0434   -1.9040   32.5439 C.ar    1  UNL1        0.1171
     38 N           4.5325   -1.6917   33.9460 N.ar    1  UNL1       -0.2279
     39 C           4.8160   -0.2291   34.1215 C.ar    1  UNL1        0.1353
     40 N           4.5021    0.4624   32.8279 N.ar    1  UNL1       -0.3394
     41 H           4.5934    1.4264   32.6501 H       1  UNL1        0.1671
     42 C           5.3241    0.4267   35.3712 C.3     1  UNL1        0.1319
     43 C           6.5783    0.0641   36.1098 C.3     1  UNL1        0.0293
     44 C           6.6965    0.9736   37.2967 C.3     1  UNL1        0.0237
     45 C           5.5154    1.8982   37.2917 C.3     1  UNL1        0.0939
     46 N           4.6673    1.5602   36.1017 N.am    1  UNL1       -0.2730
     47 C           3.3870    2.2370   35.7107 C.2     1  UNL1        0.2439
     48 O           2.6444    1.7877   34.4873 O.2     1  UNL1       -0.2731
     49 C           2.8492    3.3630   36.5432 C.3     1  UNL1        0.1512
     50 N           1.5851    3.1775   37.3289 N.am    1  UNL1       -0.2640
     51 C           1.6386    2.5902   38.7081 C.2     1  UNL1        0.4021
     52 O           2.9563    2.1884   39.3015 O.2     1  UNL1       -0.2264
     53 H           0.7202    3.4411   36.9394 H       1  UNL1        0.1532
     54 O           0.3744    2.4046   39.4939 O.3     1  UNL1       -0.4306
     55 C           0.4408    2.1178   40.9647 C.3     1  UNL1        0.2573
     56 C           3.5756    4.6745   36.5899 C.3     1  UNL1        0.0270
     57 C           3.4760    5.5441   37.8080 C.3     1  UNL1        0.0022
     58 C           4.4017    5.1165   35.4185 C.3     1  UNL1        0.0022
@<TRIPOS>BOND
     1    25    26    1
     2    26    21    1
     3    21    22    2
     4    21    23   am
     5    20    23    1
     6    20    13    1
     7    13    14    2
     8    13    15   am
     9    15    16    1
    10    16    17    1
    11    17    18    1
    12    18    19    1
    13    19     7    1
    14     7     8   ar
    15     8     9   ar
    16     9    10   ar
    17    10     1    1
    18     1     2   ar
    19     2     3   ar
    20     3     4   ar
    21     4    30    1
    22    30    31   ar
    23    31    32   ar
    24    32    33   ar
    25    33    36    1
    26    36    37   ar
    27    37    38   ar
    28    38    39   ar
    29    42    39    1
    30    42    43    1
    31    43    44    1
    32    44    45    1
    33    45    46    1
    34    46    47   am
    35    47    48    2
    36    47    49    1
    37    49    50    1
    38    50    51   am
    39    51    52    2
    40    51    54    1
    41    54    55    1
    42    49    56    1
    43    56    57    1
    44    56    58    1
    45    39    40   ar
    46    33    34   ar
    47    34    35   ar
    48     4     5   ar
    49     5     6   ar
    50    10    11   ar
    51    20    27    1
    52    27    28    1
    53    27    29    1
    54    19    15    1
    55    11     7   ar
    56     6     1   ar
    57    35    30   ar
    58    40    36   ar
    59    46    42    1
    60    23    24    1
    61    50    53    1
    62    40    41    1
    63    11    12    1
@<TRIPOS>MOLECULE
*****
 58 63 0 0 0
SMALL
GASTEIGER

@<TRIPOS>ATOM
      1 C           6.3702   -2.9259   26.1268 C.ar    1  UNL1        0.0172
      2 C           6.2485   -1.4542   26.3898 C.ar    1  UNL1        0.0015
      3 C           6.3548   -0.9316   27.7918 C.ar    1  UNL1        0.0000
      4 C           6.5830   -1.8806   28.9307 C.ar    1  UNL1        0.0000
      5 C           6.7047   -3.3523   28.6677 C.ar    1  UNL1        0.0000
      6 C           6.5984   -3.8750   27.2658 C.ar    1  UNL1        0.0015
      7 C           5.4760   -3.8498   22.4645 C.ar    1  UNL1        0.1353
      8 N           6.7243   -4.6559   22.6703 N.ar    1  UNL1       -0.2279
      9 C           7.2111   -4.4079   24.0672 C.ar    1  UNL1        0.1171
     10 C           6.2639   -3.4486   24.7248 C.ar    1  UNL1        0.0769
     11 N           5.1915   -3.1036   23.7342 N.ar    1  UNL1       -0.3394
     12 H           4.4340   -2.4945   23.8901 H       1  UNL1        0.1671
     13 C           4.9733   -1.2138   20.6076 C.2     1  UNL1        0.2439
     14 O           5.8395   -0.9599   21.8056 O.2     1  UNL1       -0.2731
     15 N           4.4253   -2.5872   20.3558 N.am    1  UNL1       -0.2730
     16 C           3.5499   -2.9901   19.2063 C.3     1  UNL1        0.0939
     17 C           3.2400   -4.4507   19.3494 C.3     1  UNL1        0.0237
     18 C           3.9238   -4.9506   20.5873 C.3     1  UNL1        0.0293
     19 C           4.6563   -3.7988   21.2093 C.3     1  UNL1        0.1319
     20 C           4.6550   -0.0942   19.6614 C.3     1  UNL1        0.1512
     21 C           6.0605   -0.2076   17.4793 C.2     1  UNL1        0.4021
     22 O           5.3203   -1.4453   17.0668 O.2     1  UNL1       -0.2264
     23 N           5.7279    0.4679   18.7766 N.am    1  UNL1       -0.2640
     24 H           6.2138    1.2802   19.0473 H       1  UNL1        0.1532
     25 C           7.6243    1.7557   16.8086 C.3     1  UNL1        0.2573
     26 O           7.1334    0.3545   16.5945 O.3     1  UNL1       -0.4306
     27 C           3.2638    0.4632   19.6000 C.3     1  UNL1        0.0270
     28 C           2.8129    1.2224   18.3874 C.3     1  UNL1        0.0022
     29 C           2.3234    0.2615   20.7511 C.3     1  UNL1        0.0022
     30 C           6.6893   -1.3580   30.3327 C.ar    1  UNL1        0.0000
     31 C           7.3863   -2.1689   31.3846 C.ar    1  UNL1        0.0000
     32 C           7.4926   -1.6462   32.7866 C.ar    1  UNL1        0.0015
     33 C           6.9020   -0.3126   33.1367 C.ar    1  UNL1        0.0172
     34 C           6.2050    0.4984   32.0847 C.ar    1  UNL1        0.0015
     35 C           6.0987   -0.0243   30.6827 C.ar    1  UNL1        0.0000
     36 C           7.0083    0.2101   34.5386 C.ar    1  UNL1        0.0769
     37 C           7.7809   -0.4211   35.6587 C.ar    1  UNL1        0.1171
     38 N           7.6108    0.4345   36.8790 N.ar    1  UNL1       -0.2279
     39 C           6.7331    1.5945   36.5130 C.ar    1  UNL1        0.1353
     40 N           6.3608    1.4559   35.0665 N.ar    1  UNL1       -0.3394
     41 H           5.7913    2.0740   34.5538 H       1  UNL1        0.1671
     42 C           6.3032    2.6993   37.4320 C.3     1  UNL1        0.1319
     43 C           7.2075    3.6908   38.1022 C.3     1  UNL1        0.0293
     44 C           6.3567    4.6108   38.9267 C.3     1  UNL1        0.0237
     45 C           4.9266    4.1879   38.7661 C.3     1  UNL1        0.0939
     46 N           4.8935    3.0065   37.8423 N.am    1  UNL1       -0.2730
     47 C           3.6662    2.2630   37.4056 C.2     1  UNL1        0.2439
     48 O           3.7894    1.0944   36.4732 O.2     1  UNL1       -0.2731
     49 C           2.3157    2.6879   37.9013 C.3     1  UNL1        0.1512
     50 N           1.7450    4.0102   37.4822 N.am    1  UNL1       -0.2640
     51 C           1.4803    4.2871   36.0319 C.2     1  UNL1        0.4021
     52 O           1.7863    3.2416   35.0008 O.2     1  UNL1       -0.2264
     53 H           1.5441    4.6964   38.1590 H       1  UNL1        0.1532
     54 O           0.9096    5.6095   35.6128 O.3     1  UNL1       -0.4306
     55 C           0.0834    6.4090   36.5762 C.3     1  UNL1        0.2573
     56 C           1.5360    1.7905   38.8159 C.3     1  UNL1        0.0270
     57 C           0.2612    2.2784   39.4379 C.3     1  UNL1        0.0022
     58 C           2.0310    0.4051   39.1087 C.3     1  UNL1        0.0022
@<TRIPOS>BOND
     1    25    26    1
     2    26    21    1
     3    21    22    2
     4    21    23   am
     5    20    23    1
     6    20    13    1
     7    13    14    2
     8    13    15   am
     9    15    16    1
    10    16    17    1
    11    17    18    1
    12    18    19    1
    13    19     7    1
    14     7     8   ar
    15     8     9   ar
    16     9    10   ar
    17    10     1    1
    18     1     2   ar
    19     2     3   ar
    20     3     4   ar
    21     4    30    1
    22    30    31   ar
    23    31    32   ar
    24    32    33   ar
    25    33    36    1
    26    36    37   ar
    27    37    38   ar
    28    38    39   ar
    29    42    39    1
    30    42    43    1
    31    43    44    1
    32    44    45    1
    33    45    46    1
    34    46    47   am
    35    47    48    2
    36    47    49    1
    37    49    50    1
    38    50    51   am
    39    51    52    2
    40    51    54    1
    41    54    55    1
    42    49    56    1
    43    56    57    1
    44    56    58    1
    45    39    40   ar
    46    33    34   ar
    47    34    35   ar
    48     4     5   ar
    49     5     6   ar
    50    10    11   ar
    51    20    27    1
    52    27    28    1
    53    27    29    1
    54    19    15    1
    55    11     7   ar
    56     6     1   ar
    57    35    30   ar
    58    40    36   ar
    59    46    42    1
    60    23    24    1
    61    50    53    1
    62    40    41    1
    63    11    12    1
@<TRIPOS>MOLECULE
*****
 58 63 0 0 0
SMALL
GASTEIGER

@<TRIPOS>ATOM
      1 C           5.8031   -2.6524   26.0049 C.ar    1  UNL1        0.0172
      2 C           4.8576   -1.5526   26.3876 C.ar    1  UNL1        0.0015
      3 C           4.7347   -1.1350   27.8230 C.ar    1  UNL1        0.0000
      4 C           5.5572   -1.8172   28.8757 C.ar    1  UNL1        0.0000
      5 C           6.5026   -2.9169   28.4930 C.ar    1  UNL1        0.0000
      6 C           6.6256   -3.3345   27.0576 C.ar    1  UNL1        0.0015
      7 C           5.3938   -3.5410   22.2487 C.ar    1  UNL1        0.1353
      8 N           6.8368   -3.8843   22.4723 N.ar    1  UNL1       -0.2279
      9 C           7.1658   -3.5932   23.9065 C.ar    1  UNL1        0.1171
     10 C           5.9261   -3.0700   24.5694 C.ar    1  UNL1        0.0769
     11 N           4.8310   -3.0378   23.5448 N.ar    1  UNL1       -0.3394
     12 H           3.9053   -2.7388   23.6965 H       1  UNL1        0.1671
     13 C           4.1596   -1.0921   20.4800 C.2     1  UNL1        0.2439
     14 O           4.8592   -0.6491   21.7307 O.2     1  UNL1       -0.2731
     15 N           4.0779   -2.5515   20.1431 N.am    1  UNL1       -0.2730
     16 C           3.4144   -3.1414   18.9340 C.3     1  UNL1        0.0939
     17 C           3.5717   -4.6317   18.9998 C.3     1  UNL1        0.0237
     18 C           4.3324   -4.9628   20.2496 C.3     1  UNL1        0.0293
     19 C           4.6451   -3.6771   20.9561 C.3     1  UNL1        0.1319
     20 C           3.5418   -0.0757   19.5661 C.3     1  UNL1        0.1512
     21 C           5.0418    0.3796   17.4942 C.2     1  UNL1        0.4021
     22 O           4.7930   -1.0171   17.0071 O.2     1  UNL1       -0.2264
     23 N           4.4161    0.8503   18.7737 N.am    1  UNL1       -0.2640
     24 H           4.5794    1.7671   19.0933 H       1  UNL1        0.1532
     25 C           7.4043    1.1176   16.7044 C.3     1  UNL1        0.2573
     26 O           5.9161    1.3057   16.7019 O.3     1  UNL1       -0.4306
     27 C           2.0494    0.0147   19.4446 C.3     1  UNL1        0.0270
     28 C           1.4329    0.6694   18.2441 C.3     1  UNL1        0.0022
     29 C           1.1735   -0.5498   20.5236 C.3     1  UNL1        0.0022
     30 C           5.4342   -1.3995   30.3112 C.ar    1  UNL1        0.0000
     31 C           5.8733   -2.3294   31.4031 C.ar    1  UNL1        0.0000
     32 C           5.7503   -1.9118   32.8386 C.ar    1  UNL1        0.0015
     33 C           5.1881   -0.5642   33.1820 C.ar    1  UNL1        0.0172
     34 C           4.7490    0.3658   32.0900 C.ar    1  UNL1        0.0015
     35 C           4.8720   -0.0519   30.6546 C.ar    1  UNL1        0.0000
     36 C           5.0651   -0.1465   34.6174 C.ar    1  UNL1        0.0769
     37 C           6.0625   -0.4200   35.7039 C.ar    1  UNL1        0.1171
     38 N           5.5370    0.1755   36.9763 N.ar    1  UNL1       -0.2279
     39 C           4.2146    0.8170   36.6762 C.ar    1  UNL1        0.1353
     40 N           3.9231    0.6180   35.2184 N.ar    1  UNL1       -0.3394
     41 H           3.1226    0.9338   34.7400 H       1  UNL1        0.1671
     42 C           3.3379    1.5321   37.6612 C.3     1  UNL1        0.1319
     43 C           2.4585    0.8858   38.6903 C.3     1  UNL1        0.0293
     44 C           1.7637    1.9732   39.4550 C.3     1  UNL1        0.0237
     45 C           2.2137    3.2915   38.8985 C.3     1  UNL1        0.0939
     46 N           3.1865    3.0188   37.7899 N.am    1  UNL1       -0.2730
     47 C           3.8854    4.0516   36.9563 C.2     1  UNL1        0.2439
     48 O           4.8366    3.6263   35.8772 O.2     1  UNL1       -0.2731
     49 C           3.6331    5.5098   37.2018 C.3     1  UNL1        0.1512
     50 N           2.9284    6.3338   36.1654 N.am    1  UNL1       -0.2640
     51 C           1.4381    6.2434   36.0214 C.2     1  UNL1        0.4021
     52 O           0.6525    5.3290   36.9140 O.2     1  UNL1       -0.2264
     53 H           3.4440    6.9340   35.5796 H       1  UNL1        0.1532
     54 O           0.7333    7.0675   34.9850 O.3     1  UNL1       -0.4306
     55 C          -0.3691    6.4620   34.1676 C.3     1  UNL1        0.2573
     56 C           4.0855    6.1438   38.4837 C.3     1  UNL1        0.0270
     57 C           3.5243    7.4699   38.9035 C.3     1  UNL1        0.0022
     58 C           5.0993    5.4517   39.3458 C.3     1  UNL1        0.0022
@<TRIPOS>BOND
     1    25    26    1
     2    26    21    1
     3    21    22    2
     4    21    23   am
     5    20    23    1
     6    20    13    1
     7    13    14    2
     8    13    15   am
     9    15    16    1
    10    16    17    1
    11    17    18    1
    12    18    19    1
    13    19     7    1
    14     7     8   ar
    15     8     9   ar
    16     9    10   ar
    17    10     1    1
    18     1     2   ar
    19     2     3   ar
    20     3     4   ar
    21     4    30    1
    22    30    31   ar
    23    31    32   ar
    24    32    33   ar
    25    33    36    1
    26    36    37   ar
    27    37    38   ar
    28    38    39   ar
    29    42    39    1
    30    42    43    1
    31    43    44    1
    32    44    45    1
    33    45    46    1
    34    46    47   am
    35    47    48    2
    36    47    49    1
    37    49    50    1
    38    50    51   am
    39    51    52    2
    40    51    54    1
    41    54    55    1
    42    49    56    1
    43    56    57    1
    44    56    58    1
    45    39    40   ar
    46    33    34   ar
    47    34    35   ar
    48     4     5   ar
    49     5     6   ar
    50    10    11   ar
    51    20    27    1
    52    27    28    1
    53    27    29    1
    54    19    15    1
    55    11     7   ar
    56     6     1   ar
    57    35    30   ar
    58    40    36   ar
    59    46    42    1
    60    23    24    1
    61    50    53    1
    62    40    41    1
    63    11    12    1
@<TRIPOS>MOLECULE
*****
 58 63 0 0 0
SMALL
GASTEIGER

@<TRIPOS>ATOM
      1 C          -1.6242    3.1944   25.0503 C.ar    1  UNL1        0.0172
      2 C          -2.2238    3.5351   23.7183 C.ar    1  UNL1        0.0015
      3 C          -3.6379    4.0287   23.6366 C.ar    1  UNL1        0.0000
      4 C          -4.4524    4.1815   24.8869 C.ar    1  UNL1        0.0000
      5 C          -3.8527    3.8409   26.2189 C.ar    1  UNL1        0.0000
      6 C          -2.4387    3.3473   26.3006 C.ar    1  UNL1        0.0015
      7 C           1.7730    1.3252   24.8762 C.ar    1  UNL1        0.1353
      8 N           2.1590    2.5574   25.6395 N.ar    1  UNL1       -0.2279
      9 C           0.9334    3.4076   25.7977 C.ar    1  UNL1        0.1171
     10 C          -0.2100    2.7009   25.1321 C.ar    1  UNL1        0.0769
     11 N           0.3089    1.4138   24.5626 N.ar    1  UNL1       -0.3394
     12 H          -0.2189    0.7448   24.0695 H       1  UNL1        0.1671
     13 C           2.5303    0.4183   21.8342 C.2     1  UNL1        0.2439
     14 O           1.5841    1.5800   21.9068 O.2     1  UNL1       -0.2731
     15 N           3.0382   -0.2152   23.0954 N.am    1  UNL1       -0.2730
     16 C           3.9835   -1.3769   23.1798 C.3     1  UNL1        0.0939
     17 C           4.2196   -1.6780   24.6301 C.3     1  UNL1        0.0237
     18 C           3.4203   -0.7024   25.4422 C.3     1  UNL1        0.0293
     19 C           2.6902    0.2016   24.4936 C.3     1  UNL1        0.1319
     20 C           2.9686   -0.1098   20.5004 C.3     1  UNL1        0.1512
     21 C           3.5865   -2.5194   19.7506 C.2     1  UNL1        0.4021
     22 O           5.0433   -2.1852   19.8772 O.2     1  UNL1       -0.2264
     23 N           2.5492   -1.4817   20.0623 N.am    1  UNL1       -0.2640
     24 H           1.5930   -1.7010   19.9792 H       1  UNL1        0.1532
     25 C           4.2039   -4.9111   18.9454 C.3     1  UNL1        0.2573
     26 O           3.1670   -3.8912   19.3125 O.3     1  UNL1       -0.4306
     27 C           3.8264    0.7340   19.6048 C.3     1  UNL1        0.0270
     28 C           5.0757    1.3671   20.1417 C.3     1  UNL1        0.0022
     29 C           3.4349    0.9448   18.1721 C.3     1  UNL1        0.0022
     30 C          -5.8665    4.6751   24.8051 C.ar    1  UNL1        0.0000
     31 C          -6.7666    4.1936   23.7061 C.ar    1  UNL1        0.0000
     32 C          -8.1808    4.6872   23.6243 C.ar    1  UNL1        0.0015
     33 C          -8.6948    5.6623   24.6417 C.ar    1  UNL1        0.0172
     34 C          -7.7946    6.1438   25.7408 C.ar    1  UNL1        0.0015
     35 C          -6.3805    5.6502   25.8225 C.ar    1  UNL1        0.0000
     36 C         -10.1088    6.1559   24.5600 C.ar    1  UNL1        0.0769
     37 C         -10.5461    7.4993   24.0558 C.ar    1  UNL1        0.1171
     38 N         -12.0414    7.5664   24.1523 N.ar    1  UNL1       -0.2279
     39 C         -12.5284    6.2645   24.7161 C.ar    1  UNL1        0.1353
     40 N         -11.3340    5.3928   24.9681 N.ar    1  UNL1       -0.3394
     41 H         -11.3512    4.4800   25.3366 H       1  UNL1        0.1671
     42 C         -13.9587    5.8985   24.9814 C.3     1  UNL1        0.1319
     43 C         -14.6188    5.8402   26.3271 C.3     1  UNL1        0.0293
     44 C         -16.0481    5.4323   26.1250 C.3     1  UNL1        0.0237
     45 C         -16.2713    5.2385   24.6544 C.3     1  UNL1        0.0939
     46 N         -14.9800    5.5267   23.9477 N.am    1  UNL1       -0.2730
     47 C         -14.7503    5.4555   22.4671 C.2     1  UNL1        0.2439
     48 O         -13.3977    5.7731   21.9018 O.2     1  UNL1       -0.2731
     49 C         -15.8733    5.0666   21.5517 C.3     1  UNL1        0.1512
     50 N         -16.1103    3.6215   21.2275 N.am    1  UNL1       -0.2640
     51 C         -15.5623    3.0377   19.9591 C.2     1  UNL1        0.4021
     52 O         -14.7772    3.8992   19.0150 O.2     1  UNL1       -0.2264
     53 H         -16.6256    3.0561   21.8472 H       1  UNL1        0.1532
     54 O         -15.7993    1.5925   19.6349 O.3     1  UNL1       -0.4306
     55 C         -16.7266    0.7754   20.4849 C.3     1  UNL1        0.2573
     56 C         -16.7591    6.1230   20.9606 C.3     1  UNL1        0.0270
     57 C         -18.2076    5.8299   20.7044 C.3     1  UNL1        0.0022
     58 C         -16.1964    7.4725   20.6258 C.3     1  UNL1        0.0022
@<TRIPOS>BOND
     1    25    26    1
     2    26    21    1
     3    21    22    2
     4    21    23   am
     5    20    23    1
     6    20    13    1
     7    13    14    2
     8    13    15   am
     9    15    16    1
    10    16    17    1
    11    17    18    1
    12    18    19    1
    13    19     7    1
    14     7     8   ar
    15     8     9   ar
    16     9    10   ar
    17    10     1    1
    18     1     2   ar
    19     2     3   ar
    20     3     4   ar
    21     4    30    1
    22    30    31   ar
    23    31    32   ar
    24    32    33   ar
    25    33    36    1
    26    36    37   ar
    27    37    38   ar
    28    38    39   ar
    29    42    39    1
    30    42    43    1
    31    43    44    1
    32    44    45    1
    33    45    46    1
    34    46    47   am
    35    47    48    2
    36    47    49    1
    37    49    50    1
    38    50    51   am
    39    51    52    2
    40    51    54    1
    41    54    55    1
    42    49    56    1
    43    56    57    1
    44    56    58    1
    45    39    40   ar
    46    33    34   ar
    47    34    35   ar
    48     4     5   ar
    49     5     6   ar
    50    10    11   ar
    51    20    27    1
    52    27    28    1
    53    27    29    1
    54    19    15    1
    55    11     7   ar
    56     6     1   ar
    57    35    30   ar
    58    40    36   ar
    59    46    42    1
    60    23    24    1
    61    50    53    1
    62    40    41    1
    63    11    12    1
@<TRIPOS>MOLECULE
*****
 58 63 0 0 0
SMALL
GASTEIGER

@<TRIPOS>ATOM
      1 C           7.2361   -3.3606   27.0205 C.ar    1  UNL1        0.0172
      2 C           7.2681   -1.8846   27.2860 C.ar    1  UNL1        0.0015
      3 C           6.9344   -1.3608   28.6513 C.ar    1  UNL1        0.0000
      4 C           6.5687   -2.3129   29.7512 C.ar    1  UNL1        0.0000
      5 C           6.5367   -3.7888   29.4858 C.ar    1  UNL1        0.0000
      6 C           6.8704   -4.3127   28.1204 C.ar    1  UNL1        0.0015
      7 C           7.9902   -4.0037   23.2677 C.ar    1  UNL1        0.1353
      8 N           8.1764   -5.3776   23.8404 N.ar    1  UNL1       -0.2279
      9 C           7.9166   -5.3038   25.3159 C.ar    1  UNL1        0.1171
     10 C           7.5698   -3.8845   25.6551 C.ar    1  UNL1        0.0769
     11 N           7.6153   -3.0810   24.3893 N.ar    1  UNL1       -0.3394
     12 H           7.4313   -2.1172   24.3088 H       1  UNL1        0.1671
     13 C           5.5724   -3.5384   21.1260 C.2     1  UNL1        0.2439
     14 O           5.1055   -3.9167   22.5004 O.2     1  UNL1       -0.2731
     15 N           7.0393   -3.4062   20.8421 N.am    1  UNL1       -0.2730
     16 C           7.6525   -3.0368   19.5239 C.3     1  UNL1        0.0939
     17 C           9.1427   -3.0224   19.6937 C.3     1  UNL1        0.0237
     18 C           9.4506   -3.3829   21.1168 C.3     1  UNL1        0.0293
     19 C           8.1507   -3.6200   21.8265 C.3     1  UNL1        0.1319
     20 C           4.5723   -3.2924   20.0354 C.3     1  UNL1        0.1512
     21 C           4.3989   -1.2244   18.4722 C.2     1  UNL1        0.4021
     22 O           5.2158   -1.9387   17.4366 O.2     1  UNL1       -0.2264
     23 N           4.0772   -1.9013   19.7716 N.am    1  UNL1       -0.2640
     24 H           3.5410   -1.4324   20.4513 H       1  UNL1        0.1532
     25 C           4.8787    1.2636   17.8981 C.3     1  UNL1        0.2573
     26 O           3.9038    0.1667   18.2085 O.3     1  UNL1       -0.4306
     27 C           4.0674   -4.4375   19.2086 C.3     1  UNL1        0.0270
     28 C           2.5943   -4.6067   18.9819 C.3     1  UNL1        0.0022
     29 C           5.0355   -5.4137   18.6085 C.3     1  UNL1        0.0022
     30 C           6.2350   -1.7889   31.1166 C.ar    1  UNL1        0.0000
     31 C           6.7722   -0.4613   31.5624 C.ar    1  UNL1        0.0000
     32 C           6.4385    0.0626   32.9278 C.ar    1  UNL1        0.0015
     33 C           5.5676   -0.7412   33.8473 C.ar    1  UNL1        0.0172
     34 C           5.0304   -2.0688   33.4014 C.ar    1  UNL1        0.0015
     35 C           5.3641   -2.5927   32.0361 C.ar    1  UNL1        0.0000
     36 C           5.2339   -0.2173   35.2126 C.ar    1  UNL1        0.0769
     37 C           6.1635   -0.1659   36.3888 C.ar    1  UNL1        0.1171
     38 N           5.4161    0.4303   37.5446 N.ar    1  UNL1       -0.2279
     39 C           4.0246    0.7474   37.0828 C.ar    1  UNL1        0.1353
     40 N           3.9120    0.3471   35.6416 N.ar    1  UNL1       -0.3394
     41 H           3.1111    0.4388   35.0764 H       1  UNL1        0.1671
     42 C           2.9367    1.3576   37.9160 C.3     1  UNL1        0.1319
     43 C           2.0293    0.6222   38.8570 C.3     1  UNL1        0.0293
     44 C           1.0970    1.6204   39.4770 C.3     1  UNL1        0.0237
     45 C           1.4283    2.9728   38.9191 C.3     1  UNL1        0.0939
     46 N           2.5653    2.8103   37.9543 N.am    1  UNL1       -0.2730
     47 C           3.2165    3.9080   37.1663 C.2     1  UNL1        0.2439
     48 O           4.3495    3.5923   36.2353 O.2     1  UNL1       -0.2731
     49 C           2.7347    5.3214   37.3091 C.3     1  UNL1        0.1512
     50 N           3.2295    6.1715   38.4415 N.am    1  UNL1       -0.2640
     51 C           4.5577    6.8608   38.3371 C.2     1  UNL1        0.4021
     52 O           5.3909    6.6999   37.1003 O.2     1  UNL1       -0.2264
     53 H           2.6826    6.2770   39.2533 H       1  UNL1        0.1532
     54 O           5.0525    7.7109   39.4696 O.3     1  UNL1       -0.4306
     55 C           5.1634    7.1323   40.8490 C.3     1  UNL1        0.2573
     56 C           1.7582    5.8845   36.3196 C.3     1  UNL1        0.0270
     57 C           2.2529    6.4962   35.0426 C.3     1  UNL1        0.0022
     58 C           0.2868    5.8360   36.6072 C.3     1  UNL1        0.0022
@<TRIPOS>BOND
     1    25    26    1
     2    26    21    1
     3    21    22    2
     4    21    23   am
     5    20    23    1
     6    20    13    1
     7    13    14    2
     8    13    15   am
     9    15    16    1
    10    16    17    1
    11    17    18    1
    12    18    19    1
    13    19     7    1
    14     7     8   ar
    15     8     9   ar
    16     9    10   ar
    17    10     1    1
    18     1     2   ar
    19     2     3   ar
    20     3     4   ar
    21     4    30    1
    22    30    31   ar
    23    31    32   ar
    24    32    33   ar
    25    33    36    1
    26    36    37   ar
    27    37    38   ar
    28    38    39   ar
    29    42    39    1
    30    42    43    1
    31    43    44    1
    32    44    45    1
    33    45    46    1
    34    46    47   am
    35    47    48    2
    36    47    49    1
    37    49    50    1
    38    50    51   am
    39    51    52    2
    40    51    54    1
    41    54    55    1
    42    49    56    1
    43    56    57    1
    44    56    58    1
    45    39    40   ar
    46    33    34   ar
    47    34    35   ar
    48     4     5   ar
    49     5     6   ar
    50    10    11   ar
    51    20    27    1
    52    27    28    1
    53    27    29    1
    54    19    15    1
    55    11     7   ar
    56     6     1   ar
    57    35    30   ar
    58    40    36   ar
    59    46    42    1
    60    23    24    1
    61    50    53    1
    62    40    41    1
    63    11    12    1
@<TRIPOS>MOLECULE
*****
 58 63 0 0 0
SMALL
GASTEIGER

@<TRIPOS>ATOM
      1 C           7.4308   -3.2494   27.2290 C.ar    1  UNL1        0.0172
      2 C           6.2356   -2.4949   27.7310 C.ar    1  UNL1        0.0015
      3 C           6.2299   -1.9401   29.1246 C.ar    1  UNL1        0.0000
      4 C           7.4195   -2.1399   30.0162 C.ar    1  UNL1        0.0000
      5 C           8.6148   -2.8944   29.5142 C.ar    1  UNL1        0.0000
      6 C           8.6204   -3.4491   28.1206 C.ar    1  UNL1        0.0015
      7 C           7.6904   -3.9988   23.4294 C.ar    1  UNL1        0.1353
      8 N           7.2002   -5.3167   23.9520 N.ar    1  UNL1       -0.2279
      9 C           7.0433   -5.1964   25.4389 C.ar    1  UNL1        0.1171
     10 C           7.4365   -3.8042   25.8353 C.ar    1  UNL1        0.0769
     11 N           7.8364   -3.0641   24.5934 N.ar    1  UNL1       -0.3394
     12 H           8.1412   -2.1289   24.5499 H       1  UNL1        0.1671
     13 C           5.7116   -2.4041   21.3824 C.2     1  UNL1        0.2439
     14 O           5.1473   -2.5836   22.7605 O.2     1  UNL1       -0.2731
     15 N           7.0735   -2.9400   21.0539 N.am    1  UNL1       -0.2730
     16 C           7.7650   -2.8370   19.7268 C.3     1  UNL1        0.0939
     17 C           9.1019   -3.5064   19.8476 C.3     1  UNL1        0.0237
     18 C           9.2367   -4.0231   21.2493 C.3     1  UNL1        0.0293
     19 C           7.9831   -3.6730   21.9948 C.3     1  UNL1        0.1319
     20 C           4.9140   -1.6886   20.3326 C.3     1  UNL1        0.1512
     21 C           5.7243   -0.3007   18.2913 C.2     1  UNL1        0.4021
     22 O           5.5256   -1.4923   17.4022 O.2     1  UNL1       -0.2264
     23 N           5.4185   -0.3988   19.7565 N.am    1  UNL1       -0.2640
     24 H           5.5489    0.3833   20.3401 H       1  UNL1        0.1532
     25 C           6.8629    1.0062   16.3560 C.3     1  UNL1        0.2573
     26 O           6.2288    0.9891   17.7153 O.3     1  UNL1       -0.4306
     27 C           3.6118   -2.2630   19.8590 C.3     1  UNL1        0.0270
     28 C           3.5498   -3.6810   19.3737 C.3     1  UNL1        0.0022
     29 C           2.3714   -1.4195   19.8707 C.3     1  UNL1        0.0022
     30 C           7.4138   -1.5851   31.4099 C.ar    1  UNL1        0.0000
     31 C           8.6703   -1.6018   32.2289 C.ar    1  UNL1        0.0000
     32 C           8.6647   -1.0470   33.6226 C.ar    1  UNL1        0.0015
     33 C           7.4024   -0.4756   34.1972 C.ar    1  UNL1        0.0172
     34 C           6.1458   -0.4589   33.3781 C.ar    1  UNL1        0.0015
     35 C           6.1516   -1.0137   31.9845 C.ar    1  UNL1        0.0000
     36 C           7.3967    0.0792   35.5908 C.ar    1  UNL1        0.0769
     37 C           8.1788   -0.4529   36.7548 C.ar    1  UNL1        0.1171
     38 N           7.8733    0.4025   37.9485 N.ar    1  UNL1       -0.2279
     39 C           6.9023    1.4634   37.5221 C.ar    1  UNL1        0.1353
     40 N           6.6077    1.2635   36.0650 N.ar    1  UNL1       -0.3394
     41 H           6.0028    1.8132   35.5162 H       1  UNL1        0.1671
     42 C           6.3269    2.5358   38.3990 C.3     1  UNL1        0.1319
     43 C           7.1072    3.4785   39.2663 C.3     1  UNL1        0.0293
     44 C           6.1328    4.3791   39.9658 C.3     1  UNL1        0.0237
     45 C           4.7501    3.9929   39.5309 C.3     1  UNL1        0.0939
     46 N           4.8702    2.8536   38.5626 N.am    1  UNL1       -0.2730
     47 C           3.7330    2.1550   37.8779 C.2     1  UNL1        0.2439
     48 O           4.0084    1.0257   36.9298 O.2     1  UNL1       -0.2731
     49 C           2.3204    2.5855   38.1415 C.3     1  UNL1        0.1512
     50 N           1.8079    3.8708   37.5626 N.am    1  UNL1       -0.2640
     51 C           1.6655    4.0203   36.0769 C.2     1  UNL1        0.4021
     52 O           2.0358    2.8843   35.1700 O.2     1  UNL1       -0.2264
     53 H           1.5648    4.6164   38.1579 H       1  UNL1        0.1532
     54 O           1.1529    5.3056   35.4981 O.3     1  UNL1       -0.4306
     55 C           0.5555    6.3474   36.3969 C.3     1  UNL1        0.2573
     56 C           1.4206    1.7307   38.9838 C.3     1  UNL1        0.0270
     57 C           0.1655    2.3098   39.5662 C.3     1  UNL1        0.0022
     58 C           1.7758    0.2967   39.2436 C.3     1  UNL1        0.0022
@<TRIPOS>BOND
     1    25    26    1
     2    26    21    1
     3    21    22    2
     4    21    23   am
     5    20    23    1
     6    20    13    1
     7    13    14    2
     8    13    15   am
     9    15    16    1
    10    16    17    1
    11    17    18    1
    12    18    19    1
    13    19     7    1
    14     7     8   ar
    15     8     9   ar
    16     9    10   ar
    17    10     1    1
    18     1     2   ar
    19     2     3   ar
    20     3     4   ar
    21     4    30    1
    22    30    31   ar
    23    31    32   ar
    24    32    33   ar
    25    33    36    1
    26    36    37   ar
    27    37    38   ar
    28    38    39   ar
    29    42    39    1
    30    42    43    1
    31    43    44    1
    32    44    45    1
    33    45    46    1
    34    46    47   am
    35    47    48    2
    36    47    49    1
    37    49    50    1
    38    50    51   am
    39    51    52    2
    40    51    54    1
    41    54    55    1
    42    49    56    1
    43    56    57    1
    44    56    58    1
    45    39    40   ar
    46    33    34   ar
    47    34    35   ar
    48     4     5   ar
    49     5     6   ar
    50    10    11   ar
    51    20    27    1
    52    27    28    1
    53    27    29    1
    54    19    15    1
    55    11     7   ar
    56     6     1   ar
    57    35    30   ar
    58    40    36   ar
    59    46    42    1
    60    23    24    1
    61    50    53    1
    62    40    41    1
    63    11    12    1
@<TRIPOS>MOLECULE
*****
 58 63 0 0 0
SMALL
GASTEIGER

@<TRIPOS>ATOM
      1 C           5.7064   -2.1956   26.0226 C.ar    1  UNL1        0.0172
      2 C           4.4121   -1.6323   26.5299 C.ar    1  UNL1        0.0015
      3 C           4.2653   -1.2787   27.9802 C.ar    1  UNL1        0.0000
      4 C           5.4129   -1.4883   28.9231 C.ar    1  UNL1        0.0000
      5 C           6.7072   -2.0516   28.4158 C.ar    1  UNL1        0.0000
      6 C           6.8540   -2.4052   26.9656 C.ar    1  UNL1        0.0015
      7 C           5.3327   -3.1055   22.2678 C.ar    1  UNL1        0.1353
      8 N           6.8255   -3.0816   22.4131 N.ar    1  UNL1       -0.2279
      9 C           7.1472   -2.7378   23.8373 C.ar    1  UNL1        0.1171
     10 C           5.8532   -2.5493   24.5722 C.ar    1  UNL1        0.0769
     11 N           4.7318   -2.7765   23.6022 N.ar    1  UNL1       -0.3394
     12 H           3.7703   -2.7197   23.8057 H       1  UNL1        0.1671
     13 C           3.9086   -0.9111   20.3170 C.2     1  UNL1        0.2439
     14 O           4.5971   -0.3128   21.5079 O.2     1  UNL1       -0.2731
     15 N           3.9195   -2.3970   20.1125 N.am    1  UNL1       -0.2730
     16 C           3.2776   -3.1352   18.9753 C.3     1  UNL1        0.0939
     17 C           3.5356   -4.6000   19.1692 C.3     1  UNL1        0.0237
     18 C           4.3368   -4.7672   20.4262 C.3     1  UNL1        0.0293
     19 C           4.5740   -3.4057   21.0091 C.3     1  UNL1        0.1319
     20 C           3.2093   -0.0233   19.3306 C.3     1  UNL1        0.1512
     21 C           4.5951    2.0303   18.5483 C.2     1  UNL1        0.4021
     22 O           4.4055    2.6700   19.8918 O.2     1  UNL1       -0.2264
     23 N           3.9970    0.6836   18.2678 N.am    1  UNL1       -0.2640
     24 H           4.1214    0.2638   17.3860 H       1  UNL1        0.1532
     25 C           6.7568    3.2561   17.7903 C.3     1  UNL1        0.2573
     26 O           5.3827    2.7372   17.4854 O.3     1  UNL1       -0.4306
     27 C           1.7222    0.1573   19.4072 C.3     1  UNL1        0.0270
     28 C           0.9370   -0.5336   20.4824 C.3     1  UNL1        0.0022
     29 C           1.0201    1.0290   18.4085 C.3     1  UNL1        0.0022
     30 C           5.2660   -1.1346   30.3735 C.ar    1  UNL1        0.0000
     31 C           5.4225   -2.1943   31.4234 C.ar    1  UNL1        0.0000
     32 C           5.2757   -1.8406   32.8738 C.ar    1  UNL1        0.0015
     33 C           4.9724   -0.4272   33.2741 C.ar    1  UNL1        0.0172
     34 C           4.8160    0.6326   32.2240 C.ar    1  UNL1        0.0015
     35 C           4.9628    0.2789   30.7738 C.ar    1  UNL1        0.0000
     36 C           4.8256   -0.0735   34.7243 C.ar    1  UNL1        0.0769
     37 C           5.8504   -0.3016   35.7956 C.ar    1  UNL1        0.1171
     38 N           5.2864    0.2014   37.0913 N.ar    1  UNL1       -0.2279
     39 C           3.9129    0.7404   36.8208 C.ar    1  UNL1        0.1353
     40 N           3.6281    0.5705   35.3579 N.ar    1  UNL1       -0.3394
     41 H           2.8006    0.8352   34.8949 H       1  UNL1        0.1671
     42 C           2.9868    1.3434   37.8351 C.3     1  UNL1        0.1319
     43 C           2.1285    0.5868   38.8051 C.3     1  UNL1        0.0293
     44 C           1.3676    1.5846   39.6269 C.3     1  UNL1        0.0237
     45 C           1.7557    2.9579   39.1649 C.3     1  UNL1        0.0939
     46 N           2.7564    2.8087   38.0575 N.am    1  UNL1       -0.2730
     47 C           3.4116    3.9285   37.3046 C.2     1  UNL1        0.2439
     48 O           4.3982    3.6242   36.2164 O.2     1  UNL1       -0.2731
     49 C           3.0803    5.3526   37.6399 C.3     1  UNL1        0.1512
     50 N           3.6265    5.9751   38.8905 N.am    1  UNL1       -0.2640
     51 C           5.0480    6.4523   38.9317 C.2     1  UNL1        0.4021
     52 O           5.9232    6.3069   37.7223 O.2     1  UNL1       -0.2264
     53 H           3.0520    6.0705   39.6843 H       1  UNL1        0.1532
     54 O           5.5941    7.0748   40.1824 O.3     1  UNL1       -0.4306
     55 C           4.7770    7.0719   41.4403 C.3     1  UNL1        0.2573
     56 C           2.2029    6.1540   36.7246 C.3     1  UNL1        0.0270
     57 C           0.7438    5.8267   36.6076 C.3     1  UNL1        0.0022
     58 C           2.7847    7.2828   35.9262 C.3     1  UNL1        0.0022
@<TRIPOS>BOND
     1    25    26    1
     2    26    21    1
     3    21    22    2
     4    21    23   am
     5    20    23    1
     6    20    13    1
     7    13    14    2
     8    13    15   am
     9    15    16    1
    10    16    17    1
    11    17    18    1
    12    18    19    1
    13    19     7    1
    14     7     8   ar
    15     8     9   ar
    16     9    10   ar
    17    10     1    1
    18     1     2   ar
    19     2     3   ar
    20     3     4   ar
    21     4    30    1
    22    30    31   ar
    23    31    32   ar
    24    32    33   ar
    25    33    36    1
    26    36    37   ar
    27    37    38   ar
    28    38    39   ar
    29    42    39    1
    30    42    43    1
    31    43    44    1
    32    44    45    1
    33    45    46    1
    34    46    47   am
    35    47    48    2
    36    47    49    1
    37    49    50    1
    38    50    51   am
    39    51    52    2
    40    51    54    1
    41    54    55    1
    42    49    56    1
    43    56    57    1
    44    56    58    1
    45    39    40   ar
    46    33    34   ar
    47    34    35   ar
    48     4     5   ar
    49     5     6   ar
    50    10    11   ar
    51    20    27    1
    52    27    28    1
    53    27    29    1
    54    19    15    1
    55    11     7   ar
    56     6     1   ar
    57    35    30   ar
    58    40    36   ar
    59    46    42    1
    60    23    24    1
    61    50    53    1
    62    40    41    1
    63    11    12    1
@<TRIPOS>MOLECULE
*****
 58 63 0 0 0
SMALL
GASTEIGER

@<TRIPOS>ATOM
      1 C          -5.7770    5.8069   25.5095 C.ar    1  UNL1        0.0172
      2 C          -6.6957    6.5163   26.4595 C.ar    1  UNL1        0.0015
      3 C          -8.1783    6.4843   26.2339 C.ar    1  UNL1        0.0000
      4 C          -8.7421    5.7429   25.0581 C.ar    1  UNL1        0.0000
      5 C          -7.8235    5.0334   24.1081 C.ar    1  UNL1        0.0000
      6 C          -6.3409    5.0654   24.3338 C.ar    1  UNL1        0.0015
      7 C          -2.1002    5.4901   26.7121 C.ar    1  UNL1        0.1353
      8 N          -1.9257    6.2859   25.4526 N.ar    1  UNL1       -0.2279
      9 C          -3.2818    6.5014   24.8488 C.ar    1  UNL1        0.1171
     10 C          -4.2944    5.8389   25.7351 C.ar    1  UNL1        0.0769
     11 N          -3.5642    5.2138   26.8867 N.ar    1  UNL1       -0.3394
     12 H          -3.9738    4.7106   27.6271 H       1  UNL1        0.1671
     13 C          -0.7967    2.5016   26.8495 C.2     1  UNL1        0.2439
     14 O          -1.8813    2.6475   25.8237 O.2     1  UNL1       -0.2731
     15 N          -0.4043    3.6746   27.6981 N.am    1  UNL1       -0.2730
     16 C           0.6563    3.6798   28.7589 C.3     1  UNL1        0.0939
     17 C           0.7126    5.0567   29.3513 C.3     1  UNL1        0.0237
     18 C          -0.3131    5.9025   28.6567 C.3     1  UNL1        0.0293
     19 C          -1.0034    5.0482   27.6350 C.3     1  UNL1        0.1319
     20 C          -0.1046    1.1827   27.0269 C.3     1  UNL1        0.1512
     21 C           2.1860    1.0382   25.8094 C.2     1  UNL1        0.4021
     22 O           2.7723    2.0020   26.7980 O.2     1  UNL1       -0.2264
     23 N           0.7476    0.6285   25.9239 N.am    1  UNL1       -0.2640
     24 H           0.3628   -0.0041   25.2750 H       1  UNL1        0.1532
     25 C           2.4534    0.2716   23.3415 C.3     1  UNL1        0.2573
     26 O           3.0381    0.4840   24.7064 O.3     1  UNL1       -0.4306
     27 C          -0.2647    0.4179   28.3073 C.3     1  UNL1        0.0270
     28 C          -1.6318    0.1999   28.8848 C.3     1  UNL1        0.0022
     29 C           0.9424   -0.1289   29.0103 C.3     1  UNL1        0.0022
     30 C         -10.2248    5.7109   24.8325 C.ar    1  UNL1        0.0000
     31 C         -10.9781    4.4222   24.9793 C.ar    1  UNL1        0.0000
     32 C         -12.4608    4.3902   24.7537 C.ar    1  UNL1        0.0015
     33 C         -13.1900    5.6470   24.3812 C.ar    1  UNL1        0.0172
     34 C         -12.4365    6.9358   24.2344 C.ar    1  UNL1        0.0015
     35 C         -10.9540    6.9677   24.4601 C.ar    1  UNL1        0.0000
     36 C         -14.6725    5.6151   24.1556 C.ar    1  UNL1        0.0769
     37 C         -15.5441    6.7980   23.8538 C.ar    1  UNL1        0.1171
     38 N         -16.9541    6.3087   23.7038 N.ar    1  UNL1       -0.2279
     39 C         -16.9539    4.8233   23.9129 C.ar    1  UNL1        0.1353
     40 N         -15.5438    4.3947   24.1922 N.ar    1  UNL1       -0.3394
     41 H         -15.2430    3.4740   24.3684 H       1  UNL1        0.1671
     42 C         -18.1532    3.9244   23.8533 C.3     1  UNL1        0.1319
     43 C         -19.3186    3.9453   24.7975 C.3     1  UNL1        0.0293
     44 C         -20.2833    2.8806   24.3668 C.3     1  UNL1        0.0237
     45 C         -19.7143    2.2016   23.1563 C.3     1  UNL1        0.0939
     46 N         -18.3978    2.8467   22.8390 N.am    1  UNL1       -0.2730
     47 C         -17.4860    2.4788   21.7063 C.2     1  UNL1        0.2439
     48 O         -16.1945    3.2169   21.5129 O.2     1  UNL1       -0.2731
     49 C         -17.8656    1.3727   20.7668 C.3     1  UNL1        0.1512
     50 N         -17.1964    0.0346   20.8743 N.am    1  UNL1       -0.2640
     51 C         -16.0123   -0.2833   20.0100 C.2     1  UNL1        0.4021
     52 O         -15.4976    0.7368   19.0382 O.2     1  UNL1       -0.2264
     53 H         -17.5342   -0.6349   21.5121 H       1  UNL1        0.1532
     54 O         -15.3430   -1.6215   20.1175 O.3     1  UNL1       -0.4306
     55 C         -14.2939   -2.0175   19.1213 C.3     1  UNL1        0.2573
     56 C         -18.9144    1.6047   19.7199 C.3     1  UNL1        0.0270
     57 C         -19.9505    0.5541   19.4504 C.3     1  UNL1        0.0022
     58 C         -18.9272    2.8874   18.9424 C.3     1  UNL1        0.0022
@<TRIPOS>BOND
     1    25    26    1
     2    26    21    1
     3    21    22    2
     4    21    23   am
     5    20    23    1
     6    20    13    1
     7    13    14    2
     8    13    15   am
     9    15    16    1
    10    16    17    1
    11    17    18    1
    12    18    19    1
    13    19     7    1
    14     7     8   ar
    15     8     9   ar
    16     9    10   ar
    17    10     1    1
    18     1     2   ar
    19     2     3   ar
    20     3     4   ar
    21     4    30    1
    22    30    31   ar
    23    31    32   ar
    24    32    33   ar
    25    33    36    1
    26    36    37   ar
    27    37    38   ar
    28    38    39   ar
    29    42    39    1
    30    42    43    1
    31    43    44    1
    32    44    45    1
    33    45    46    1
    34    46    47   am
    35    47    48    2
    36    47    49    1
    37    49    50    1
    38    50    51   am
    39    51    52    2
    40    51    54    1
    41    54    55    1
    42    49    56    1
    43    56    57    1
    44    56    58    1
    45    39    40   ar
    46    33    34   ar
    47    34    35   ar
    48     4     5   ar
    49     5     6   ar
    50    10    11   ar
    51    20    27    1
    52    27    28    1
    53    27    29    1
    54    19    15    1
    55    11     7   ar
    56     6     1   ar
    57    35    30   ar
    58    40    36   ar
    59    46    42    1
    60    23    24    1
    61    50    53    1
    62    40    41    1
    63    11    12    1
@<TRIPOS>MOLECULE
*****
 58 63 0 0 0
SMALL
GASTEIGER

@<TRIPOS>ATOM
      1 C          -5.1380    4.8209   24.3303 C.ar    1  UNL1        0.0172
      2 C          -5.6987    5.7128   25.3979 C.ar    1  UNL1        0.0015
      3 C          -7.1794    5.9341   25.4891 C.ar    1  UNL1        0.0000
      4 C          -8.0995    5.2635   24.5125 C.ar    1  UNL1        0.0000
      5 C          -7.5388    4.3715   23.4448 C.ar    1  UNL1        0.0000
      6 C          -6.0581    4.1502   23.3537 C.ar    1  UNL1        0.0015
      7 C          -1.4715    3.5471   24.3164 C.ar    1  UNL1        0.1353
      8 N          -1.2855    4.9706   23.8813 N.ar    1  UNL1       -0.2279
      9 C          -2.6363    5.6209   23.8335 C.ar    1  UNL1        0.1171
     10 C          -3.6572    4.5995   24.2391 C.ar    1  UNL1        0.0769
     11 N          -2.9373    3.3178   24.5375 N.ar    1  UNL1       -0.3394
     12 H          -3.3537    2.4742   24.8275 H       1  UNL1        0.1671
     13 C          -0.3177    2.4624   27.1697 C.2     1  UNL1        0.2439
     14 O          -1.4107    3.4812   27.3013 O.2     1  UNL1       -0.2731
     15 N           0.1474    2.0328   25.8099 N.am    1  UNL1       -0.2730
     16 C           1.2246    1.0291   25.5228 C.3     1  UNL1        0.0939
     17 C           1.3600    0.9075   24.0339 C.3     1  UNL1        0.0237
     18 C           0.3665    1.8359   23.4008 C.3     1  UNL1        0.0293
     19 C          -0.3829    2.5314   24.4983 C.3     1  UNL1        0.1319
     20 C           0.3102    1.8731   28.3979 C.3     1  UNL1        0.1512
     21 C           0.8924    2.7066   30.7888 C.2     1  UNL1        0.4021
     22 O          -0.1687    1.8127   31.3588 O.2     1  UNL1       -0.2264
     23 N           1.1319    2.7368   29.3083 N.am    1  UNL1       -0.2640
     24 H           1.8283    3.3235   28.9342 H       1  UNL1        0.1532
     25 C           2.2997    2.9933   32.9538 C.3     1  UNL1        0.2573
     26 O           1.7142    3.5703   31.6991 O.3     1  UNL1       -0.4306
     27 C           0.1164    0.4200   28.7157 C.3     1  UNL1        0.0270
     28 C           1.3039   -0.4490   29.0066 C.3     1  UNL1        0.0022
     29 C          -1.2650   -0.1642   28.7426 C.3     1  UNL1        0.0022
     30 C          -9.5803    5.4848   24.6037 C.ar    1  UNL1        0.0000
     31 C         -10.1361    6.8764   24.5373 C.ar    1  UNL1        0.0000
     32 C         -11.6170    7.0978   24.6284 C.ar    1  UNL1        0.0015
     33 C         -12.5419    5.9274   24.7860 C.ar    1  UNL1        0.0172
     34 C         -11.9860    4.5358   24.8524 C.ar    1  UNL1        0.0015
     35 C         -10.5053    4.3145   24.7612 C.ar    1  UNL1        0.0000
     36 C         -14.0227    6.1487   24.8771 C.ar    1  UNL1        0.0769
     37 C         -14.7080    7.4733   25.0380 C.ar    1  UNL1        0.1171
     38 N         -16.1870    7.2275   25.0837 N.ar    1  UNL1       -0.2279
     39 C         -16.4157    5.7510   24.9511 C.ar    1  UNL1        0.1353
     40 N         -15.0781    5.0843   24.8234 N.ar    1  UNL1       -0.3394
     41 H         -14.9206    4.1177   24.7222 H       1  UNL1        0.1671
     42 C         -17.7482    5.0621   24.9469 C.3     1  UNL1        0.1319
     43 C         -18.7969    5.1642   26.0146 C.3     1  UNL1        0.0293
     44 C         -19.9627    4.3154   25.6018 C.3     1  UNL1        0.0237
     45 C         -19.6346    3.6887   24.2791 C.3     1  UNL1        0.0939
     46 N         -18.2659    4.1502   23.8744 N.am    1  UNL1       -0.2730
     47 C         -17.5421    3.7671   22.6177 C.2     1  UNL1        0.2439
     48 O         -16.1705    4.3106   22.3468 O.2     1  UNL1       -0.2731
     49 C         -18.1899    2.8403   21.6319 C.3     1  UNL1        0.1512
     50 N         -17.7669    1.4029   21.5641 N.am    1  UNL1       -0.2640
     51 C         -16.7420    0.9693   20.5584 C.2     1  UNL1        0.4021
     52 O         -16.1401    1.9732   19.6204 O.2     1  UNL1       -0.2264
     53 H         -18.1620    0.7440   22.1798 H       1  UNL1        0.1532
     54 O         -16.3190   -0.4683   20.4906 O.3     1  UNL1       -0.4306
     55 C         -17.1766   -1.4695   19.7751 C.3     1  UNL1        0.2573
     56 C         -19.2605    3.3512   20.7139 C.3     1  UNL1        0.0270
     57 C         -19.4690    4.8279   20.5534 C.3     1  UNL1        0.0022
     58 C         -20.1227    2.3853   19.9565 C.3     1  UNL1        0.0022
@<TRIPOS>BOND
     1    25    26    1
     2    26    21    1
     3    21    22    2
     4    21    23   am
     5    20    23    1
     6    20    13    1
     7    13    14    2
     8    13    15   am
     9    15    16    1
    10    16    17    1
    11    17    18    1
    12    18    19    1
    13    19     7    1
    14     7     8   ar
    15     8     9   ar
    16     9    10   ar
    17    10     1    1
    18     1     2   ar
    19     2     3   ar
    20     3     4   ar
    21     4    30    1
    22    30    31   ar
    23    31    32   ar
    24    32    33   ar
    25    33    36    1
    26    36    37   ar
    27    37    38   ar
    28    38    39   ar
    29    42    39    1
    30    42    43    1
    31    43    44    1
    32    44    45    1
    33    45    46    1
    34    46    47   am
    35    47    48    2
    36    47    49    1
    37    49    50    1
    38    50    51   am
    39    51    52    2
    40    51    54    1
    41    54    55    1
    42    49    56    1
    43    56    57    1
    44    56    58    1
    45    39    40   ar
    46    33    34   ar
    47    34    35   ar
    48     4     5   ar
    49     5     6   ar
    50    10    11   ar
    51    20    27    1
    52    27    28    1
    53    27    29    1
    54    19    15    1
    55    11     7   ar
    56     6     1   ar
    57    35    30   ar
    58    40    36   ar
    59    46    42    1
    60    23    24    1
    61    50    53    1
    62    40    41    1
    63    11    12    1
