@<TRIPOS>MOLECULE
*****
 34 38 0 0 0
SMALL
GASTEIGER

@<TRIPOS>ATOM
      1 C          -2.7515  -16.6621   22.7410 C.3     1  UNL1        0.0730
      2 N          -2.8491  -17.9031   21.9041 N.3     1  UNL1       -0.2726
      3 C          -1.6956  -18.7032   21.3757 C.3     1  UNL1        0.0721
      4 C          -2.2510  -19.8564   20.5937 C.3     1  UNL1        0.0190
      5 C          -3.7478  -19.7691   20.6388 C.3     1  UNL1        0.0201
      6 C          -4.0014  -20.9941   19.8112 C.3     1  UNL1        0.0061
      7 C          -5.1549  -20.1940   20.3395 C.3     1  UNL1        0.0237
      8 C          -4.1175  -18.5618   21.4486 C.3     1  UNL1        0.0724
      9 C          -6.6333  -19.9774   20.4718 C.ar    1  UNL1       -0.0225
     10 C          -7.4622  -19.6968   19.2535 C.ar    1  UNL1       -0.0043
     11 C          -8.9405  -19.4802   19.3858 C.ar    1  UNL1        0.0035
     12 C          -9.5900  -19.5441   20.7364 C.ar    1  UNL1        0.0714
     13 C          -8.7611  -19.8246   21.9547 C.ar    1  UNL1        0.0035
     14 C          -7.2827  -20.0412   21.8224 C.ar    1  UNL1       -0.0043
     15 C         -11.0683  -19.3275   20.8687 C.3     1  UNL1        0.4186
     16 F         -12.5467  -19.1108   21.0010 F       1  UNL1       -0.1659
     17 F         -10.9978  -18.2260   19.8529 F       1  UNL1       -0.1659
     18 F         -11.1388  -20.4290   21.8844 F       1  UNL1       -0.1659
     19 C          -3.9612  -15.7994   22.9472 C.3     1  UNL1        0.0294
     20 C          -4.6850  -15.8241   24.2608 C.3     1  UNL1        0.0666
     21 S          -6.0081  -15.1314   24.4011 S.3     1  UNL1       -0.0756
     22 C          -9.4428  -16.5405   23.2685 C.ar    1  UNL1        0.1680
     23 N          -8.7107  -16.4753   21.9608 N.ar    1  UNL1       -0.1282
     24 N          -7.3350  -15.9395   22.2260 N.ar    1  UNL1       -0.1221
     25 C          -7.2168  -15.6736   23.6975 C.ar    1  UNL1        0.1932
     26 N          -8.5194  -16.0450   24.3418 N.ar    1  UNL1       -0.2884
     27 C          -8.8421  -15.9395   25.8029 C.3     1  UNL1        0.1340
     28 C          -9.9847  -18.9408   24.9845 C.3     1  UNL1        0.0522
     29 C         -11.1218  -18.2176   24.3258 C.ar    1  UNL1        0.0623
     30 N         -12.5299  -18.6947   24.5252 N.ar    1  UNL1       -0.2480
     31 C         -13.6670  -17.9715   23.8664 C.ar    1  UNL1        0.0984
     32 C         -13.3962  -16.7713   23.0084 C.ar    1  UNL1        0.0208
     33 C         -11.9880  -16.2943   22.8091 C.ar    1  UNL1        0.0058
     34 C         -10.8509  -17.0175   23.4678 C.ar    1  UNL1        0.0495
@<TRIPOS>BOND
     1    28    29    1
     2    29    30   ar
     3    30    31   ar
     4    31    32   ar
     5    32    33   ar
     6    33    34   ar
     7    34    22    1
     8    22    23   ar
     9    23    24   ar
    10    24    25   ar
    11    25    21    1
    12    21    20    1
    13    20    19    1
    14    19     1    1
    15     1     2    1
    16     2     3    1
    17     3     4    1
    18     5     4    1
    19     5     6    1
    20     6     7    1
    21     7     9    1
    22     9    10   ar
    23    10    11   ar
    24    11    12   ar
    25    12    15    1
    26    15    16    1
    27    15    17    1
    28    15    18    1
    29    12    13   ar
    30    13    14   ar
    31     5     8    1
    32    25    26   ar
    33    26    27    1
    34    34    29   ar
    35    26    22   ar
    36     8     2    1
    37     7     5    1
    38    14     9   ar
@<TRIPOS>MOLECULE
*****
 34 38 0 0 0
SMALL
GASTEIGER

@<TRIPOS>ATOM
      1 C          -4.0183  -20.7133   20.4685 C.3     1  UNL1        0.0730
      2 N          -3.2865  -19.4257   20.7067 N.3     1  UNL1       -0.2726
      3 C          -2.0547  -18.9652   19.9852 C.3     1  UNL1        0.0721
      4 C          -1.6651  -17.6275   20.5409 C.3     1  UNL1        0.0190
      5 C          -2.6560  -17.2613   21.6057 C.3     1  UNL1        0.0201
      6 C          -2.0318  -15.9426   21.9540 C.3     1  UNL1        0.0061
      7 C          -3.2636  -16.4031   22.6755 C.3     1  UNL1        0.0237
      8 C          -3.6581  -18.3727   21.7082 C.3     1  UNL1        0.0724
      9 C          -4.3256  -16.1736   23.7096 C.ar    1  UNL1       -0.0225
     10 C          -4.2163  -16.8278   25.0550 C.ar    1  UNL1       -0.0043
     11 C          -5.2783  -16.5983   26.0891 C.ar    1  UNL1        0.0035
     12 C          -6.4496  -15.7145   25.7779 C.ar    1  UNL1        0.0714
     13 C          -6.5590  -15.0603   24.4325 C.ar    1  UNL1        0.0035
     14 C          -5.4970  -15.2898   23.3983 C.ar    1  UNL1       -0.0043
     15 C          -7.5116  -15.4849   26.8120 C.3     1  UNL1        0.4186
     16 F          -8.5736  -15.2554   27.8462 F       1  UNL1       -0.1659
     17 F          -8.4847  -16.2750   25.9881 F       1  UNL1       -0.1659
     18 F          -6.5385  -14.6948   27.6359 F       1  UNL1       -0.1659
     19 C          -5.4506  -20.8513   20.8919 C.3     1  UNL1        0.0294
     20 C          -6.5514  -20.6337   19.8964 C.3     1  UNL1        0.0666
     21 S          -7.1870  -19.2814   19.7648 S.3     1  UNL1       -0.0756
     22 C          -9.7789  -18.1795   22.4357 C.ar    1  UNL1        0.1680
     23 N          -8.5527  -17.4539   22.9049 N.ar    1  UNL1       -0.1282
     24 N          -7.4326  -17.7783   21.9614 N.ar    1  UNL1       -0.1221
     25 C          -7.9664  -18.7045   20.9092 C.ar    1  UNL1        0.1932
     26 N          -9.4165  -18.9525   21.2023 N.ar    1  UNL1       -0.2884
     27 C         -10.3417  -19.8209   20.4024 C.3     1  UNL1        0.1340
     28 C         -10.2716  -19.7120   24.9672 C.3     1  UNL1        0.0522
     29 C         -11.3764  -18.9055   24.3516 C.ar    1  UNL1        0.0623
     30 N         -12.7276  -18.8653   25.0018 N.ar    1  UNL1       -0.2480
     31 C         -13.8324  -18.0589   24.3861 C.ar    1  UNL1        0.0984
     32 C         -13.5861  -17.2926   23.1203 C.ar    1  UNL1        0.0208
     33 C         -12.2349  -17.3329   22.4702 C.ar    1  UNL1        0.0058
     34 C         -11.1301  -18.1393   23.0858 C.ar    1  UNL1        0.0495
@<TRIPOS>BOND
     1    28    29    1
     2    29    30   ar
     3    30    31   ar
     4    31    32   ar
     5    32    33   ar
     6    33    34   ar
     7    34    22    1
     8    22    23   ar
     9    23    24   ar
    10    24    25   ar
    11    25    21    1
    12    21    20    1
    13    20    19    1
    14    19     1    1
    15     1     2    1
    16     2     3    1
    17     3     4    1
    18     5     4    1
    19     5     6    1
    20     6     7    1
    21     7     9    1
    22     9    10   ar
    23    10    11   ar
    24    11    12   ar
    25    12    15    1
    26    15    16    1
    27    15    17    1
    28    15    18    1
    29    12    13   ar
    30    13    14   ar
    31     5     8    1
    32    25    26   ar
    33    26    27    1
    34    34    29   ar
    35    26    22   ar
    36     8     2    1
    37     7     5    1
    38    14     9   ar
@<TRIPOS>MOLECULE
*****
 34 38 0 0 0
SMALL
GASTEIGER

@<TRIPOS>ATOM
      1 C         -10.4188  -18.2144   19.5046 C.3     1  UNL1        0.0730
      2 N          -9.8295  -18.9987   20.6394 N.3     1  UNL1       -0.2726
      3 C         -10.5991  -19.7408   21.6916 C.3     1  UNL1        0.0721
      4 C          -9.6124  -20.3794   22.6236 C.3     1  UNL1        0.0190
      5 C          -8.2330  -20.0320   22.1474 C.3     1  UNL1        0.0201
      6 C          -7.5028  -20.7757   23.2260 C.3     1  UNL1        0.0061
      7 C          -6.7332  -20.0337   22.1738 C.3     1  UNL1        0.0237
      8 C          -8.3672  -19.1787   20.9210 C.3     1  UNL1        0.0724
      9 C          -5.4231  -19.6063   21.5816 C.ar    1  UNL1       -0.0225
     10 C          -5.2884  -19.4448   20.0964 C.ar    1  UNL1       -0.0043
     11 C          -3.9783  -19.0174   19.5042 C.ar    1  UNL1        0.0035
     12 C          -2.8028  -18.7514   20.3971 C.ar    1  UNL1        0.0714
     13 C          -2.9374  -18.9129   21.8824 C.ar    1  UNL1        0.0035
     14 C          -4.2476  -19.3404   22.4746 C.ar    1  UNL1       -0.0043
     15 C          -1.4926  -18.3240   19.8049 C.3     1  UNL1        0.4186
     16 F          -0.1823  -17.8965   19.2127 F       1  UNL1       -0.1659
     17 F          -2.0887  -18.4009   18.4306 F       1  UNL1       -0.1659
     18 F          -0.8965  -18.2471   21.1792 F       1  UNL1       -0.1659
     19 C         -11.3901  -17.1059   19.7838 C.3     1  UNL1        0.0294
     20 C         -12.4695  -17.2947   20.8081 C.3     1  UNL1        0.0666
     21 S         -12.4051  -16.5538   22.1107 S.3     1  UNL1       -0.0756
     22 C          -9.0999  -16.7070   24.1399 C.ar    1  UNL1        0.1680
     23 N          -9.9552  -17.6726   24.9056 N.ar    1  UNL1       -0.1282
     24 N         -11.2974  -17.7327   24.2386 N.ar    1  UNL1       -0.1221
     25 C         -11.2717  -16.8043   23.0608 C.ar    1  UNL1        0.1932
     26 N          -9.9136  -16.1704   22.9997 N.ar    1  UNL1       -0.2884
     27 C          -9.4505  -15.1746   21.9780 C.3     1  UNL1        0.1340
     28 C          -8.4305  -15.4508   26.7807 C.3     1  UNL1        0.0522
     29 C          -7.3456  -15.7141   25.7789 C.ar    1  UNL1        0.0623
     30 N          -5.9260  -15.3492   26.0976 N.ar    1  UNL1       -0.2480
     31 C          -4.8410  -15.6125   25.0958 C.ar    1  UNL1        0.0984
     32 C          -5.1757  -16.2406   23.7753 C.ar    1  UNL1        0.0208
     33 C          -6.5953  -16.6055   23.4567 C.ar    1  UNL1        0.0058
     34 C          -7.6802  -16.3422   24.4585 C.ar    1  UNL1        0.0495
@<TRIPOS>BOND
     1    28    29    1
     2    29    30   ar
     3    30    31   ar
     4    31    32   ar
     5    32    33   ar
     6    33    34   ar
     7    34    22    1
     8    22    23   ar
     9    23    24   ar
    10    24    25   ar
    11    25    21    1
    12    21    20    1
    13    20    19    1
    14    19     1    1
    15     1     2    1
    16     2     3    1
    17     3     4    1
    18     5     4    1
    19     5     6    1
    20     6     7    1
    21     7     9    1
    22     9    10   ar
    23    10    11   ar
    24    11    12   ar
    25    12    15    1
    26    15    16    1
    27    15    17    1
    28    15    18    1
    29    12    13   ar
    30    13    14   ar
    31     5     8    1
    32    25    26   ar
    33    26    27    1
    34    34    29   ar
    35    26    22   ar
    36     8     2    1
    37     7     5    1
    38    14     9   ar
@<TRIPOS>MOLECULE
*****
 34 38 0 0 0
SMALL
GASTEIGER

@<TRIPOS>ATOM
      1 C          -3.4863  -17.3590   22.7581 C.3     1  UNL1        0.0730
      2 N          -4.4156  -16.8471   23.8184 N.3     1  UNL1       -0.2726
      3 C          -4.0522  -16.5590   25.2450 C.3     1  UNL1        0.0721
      4 C          -5.2834  -16.0671   25.9466 C.3     1  UNL1        0.0190
      5 C          -6.4077  -16.0513   24.9536 C.3     1  UNL1        0.0201
      6 C          -7.4494  -15.5404   25.9044 C.3     1  UNL1        0.0061
      7 C          -7.8127  -15.8285   24.4778 C.3     1  UNL1        0.0237
      8 C          -5.8713  -16.5333   23.6384 C.3     1  UNL1        0.0724
      9 C          -8.8336  -15.8662   23.3795 C.ar    1  UNL1       -0.0225
     10 C          -8.4451  -15.4874   21.9811 C.ar    1  UNL1       -0.0043
     11 C          -9.4660  -15.5251   20.8828 C.ar    1  UNL1        0.0035
     12 C         -10.8754  -15.9417   21.1829 C.ar    1  UNL1        0.0714
     13 C         -11.2639  -16.3205   22.5814 C.ar    1  UNL1        0.0035
     14 C         -10.2430  -16.2828   23.6797 C.ar    1  UNL1       -0.0043
     15 C         -11.8963  -15.9794   20.0846 C.3     1  UNL1        0.4186
     16 F         -12.9172  -16.0171   18.9862 F       1  UNL1       -0.1659
     17 F         -12.8209  -16.7602   20.9709 F       1  UNL1       -0.1659
     18 F         -10.9717  -15.1987   19.1983 F       1  UNL1       -0.1659
     19 C          -3.0788  -18.8026   22.7513 C.3     1  UNL1        0.0294
     20 C          -2.6984  -19.4686   21.4621 C.3     1  UNL1        0.0666
     21 S          -3.7587  -20.0651   20.5848 S.3     1  UNL1       -0.0756
     22 C          -7.4901  -19.3087   21.3403 C.ar    1  UNL1        0.1680
     23 N          -7.2000  -18.2974   20.2710 N.ar    1  UNL1       -0.1282
     24 N          -5.7669  -18.4577   19.8579 N.ar    1  UNL1       -0.1221
     25 C          -5.1713  -19.5680   20.6718 C.ar    1  UNL1        0.1932
     26 N          -6.2362  -20.0940   21.5880 N.ar    1  UNL1       -0.2884
     27 C          -6.0755  -21.2094   22.5780 C.3     1  UNL1        0.1340
     28 C         -10.0383  -19.3570   19.7579 C.3     1  UNL1        0.0522
     29 C         -10.0774  -19.5250   21.2479 C.ar    1  UNL1        0.0623
     30 N         -11.3908  -19.7172   21.9467 N.ar    1  UNL1       -0.2480
     31 C         -11.4299  -19.8853   23.4367 C.ar    1  UNL1        0.0984
     32 C         -10.1558  -19.8611   24.2280 C.ar    1  UNL1        0.0208
     33 C          -8.8425  -19.6689   23.5292 C.ar    1  UNL1        0.0058
     34 C          -8.8033  -19.5009   22.0392 C.ar    1  UNL1        0.0495
@<TRIPOS>BOND
     1    28    29    1
     2    29    30   ar
     3    30    31   ar
     4    31    32   ar
     5    32    33   ar
     6    33    34   ar
     7    34    22    1
     8    22    23   ar
     9    23    24   ar
    10    24    25   ar
    11    25    21    1
    12    21    20    1
    13    20    19    1
    14    19     1    1
    15     1     2    1
    16     2     3    1
    17     3     4    1
    18     5     4    1
    19     5     6    1
    20     6     7    1
    21     7     9    1
    22     9    10   ar
    23    10    11   ar
    24    11    12   ar
    25    12    15    1
    26    15    16    1
    27    15    17    1
    28    15    18    1
    29    12    13   ar
    30    13    14   ar
    31     5     8    1
    32    25    26   ar
    33    26    27    1
    34    34    29   ar
    35    26    22   ar
    36     8     2    1
    37     7     5    1
    38    14     9   ar
@<TRIPOS>MOLECULE
*****
 34 38 0 0 0
SMALL
GASTEIGER

@<TRIPOS>ATOM
      1 C          -3.7371  -20.1739   19.5169 C.3     1  UNL1        0.0730
      2 N          -2.9552  -18.9857   19.9933 N.3     1  UNL1       -0.2726
      3 C          -1.6527  -18.5029   19.4275 C.3     1  UNL1        0.0721
      4 C          -1.2311  -17.2906   20.2037 C.3     1  UNL1        0.0190
      5 C          -2.2732  -17.0241   21.2493 C.3     1  UNL1        0.0201
      6 C          -1.6046  -15.8146   21.8324 C.3     1  UNL1        0.0061
      7 C          -2.9071  -16.2974   22.3982 C.3     1  UNL1        0.0237
      8 C          -3.3388  -18.0718   21.1192 C.3     1  UNL1        0.0724
      9 C          -4.0252  -16.1566   23.3882 C.ar    1  UNL1       -0.0225
     10 C          -5.1824  -15.2503   23.0888 C.ar    1  UNL1       -0.0043
     11 C          -6.3004  -15.1095   24.0788 C.ar    1  UNL1        0.0035
     12 C          -6.2613  -15.8750   25.3681 C.ar    1  UNL1        0.0714
     13 C          -5.1042  -16.7814   25.6675 C.ar    1  UNL1        0.0035
     14 C          -3.9861  -16.9221   24.6775 C.ar    1  UNL1       -0.0043
     15 C          -7.3794  -15.7343   26.3581 C.3     1  UNL1        0.4186
     16 F          -8.4975  -15.5935   27.3482 F       1  UNL1       -0.1659
     17 F          -8.2683  -15.1941   25.2774 F       1  UNL1       -0.1659
     18 F          -6.4905  -16.2744   27.4389 F       1  UNL1       -0.1659
     19 C          -4.5210  -20.9973   20.4954 C.3     1  UNL1        0.0294
     20 C          -5.9450  -20.6409   20.8044 C.3     1  UNL1        0.0666
     21 S          -6.6695  -19.6410   19.9529 S.3     1  UNL1       -0.0756
     22 C         -10.2990  -18.8428   21.0733 C.ar    1  UNL1        0.1680
     23 N         -10.5365  -19.4144   19.7069 N.ar    1  UNL1       -0.1282
     24 N          -9.2058  -19.7830   19.1209 N.ar    1  UNL1       -0.1221
     25 C          -8.1459  -19.4392   20.1251 C.ar    1  UNL1        0.1932
     26 N          -8.8215  -18.8581   21.3317 N.ar    1  UNL1       -0.2884
     27 C          -8.1394  -18.3769   22.5780 C.3     1  UNL1        0.1340
     28 C         -11.8777  -16.3846   20.3915 C.3     1  UNL1        0.0522
     29 C         -12.1432  -17.1145   21.6748 C.ar    1  UNL1        0.0623
     30 N         -13.1980  -16.6152   22.6172 N.ar    1  UNL1       -0.2480
     31 C         -13.4635  -17.3451   23.9004 C.ar    1  UNL1        0.0984
     32 C         -12.6742  -18.5743   24.2414 C.ar    1  UNL1        0.0208
     33 C         -11.6193  -19.0735   23.2990 C.ar    1  UNL1        0.0058
     34 C         -11.3539  -18.3436   22.0157 C.ar    1  UNL1        0.0495
@<TRIPOS>BOND
     1    28    29    1
     2    29    30   ar
     3    30    31   ar
     4    31    32   ar
     5    32    33   ar
     6    33    34   ar
     7    34    22    1
     8    22    23   ar
     9    23    24   ar
    10    24    25   ar
    11    25    21    1
    12    21    20    1
    13    20    19    1
    14    19     1    1
    15     1     2    1
    16     2     3    1
    17     3     4    1
    18     5     4    1
    19     5     6    1
    20     6     7    1
    21     7     9    1
    22     9    10   ar
    23    10    11   ar
    24    11    12   ar
    25    12    15    1
    26    15    16    1
    27    15    17    1
    28    15    18    1
    29    12    13   ar
    30    13    14   ar
    31     5     8    1
    32    25    26   ar
    33    26    27    1
    34    34    29   ar
    35    26    22   ar
    36     8     2    1
    37     7     5    1
    38    14     9   ar
@<TRIPOS>MOLECULE
*****
 34 38 0 0 0
SMALL
GASTEIGER

@<TRIPOS>ATOM
      1 C          -9.5133  -16.3113   22.4211 C.3     1  UNL1        0.0730
      2 N          -8.5934  -16.0114   23.5673 N.3     1  UNL1       -0.2726
      3 C          -9.0039  -15.5035   24.9176 C.3     1  UNL1        0.0721
      4 C          -7.7656  -15.3450   25.7492 C.3     1  UNL1        0.0190
      5 C          -6.5898  -15.7550   24.9129 C.3     1  UNL1        0.0201
      6 C          -5.5520  -15.4996   25.9654 C.3     1  UNL1        0.0061
      7 C          -5.1416  -16.0076   24.6150 C.3     1  UNL1        0.0237
      8 C          -7.1014  -16.1669   23.5643 C.3     1  UNL1        0.0724
      9 C          -4.0684  -16.4467   23.6634 C.ar    1  UNL1       -0.0225
     10 C          -3.4908  -15.4703   22.6821 C.ar    1  UNL1       -0.0043
     11 C          -2.4177  -15.9094   21.7305 C.ar    1  UNL1        0.0035
     12 C          -1.9222  -17.3249   21.7602 C.ar    1  UNL1        0.0714
     13 C          -2.4999  -18.3012   22.7415 C.ar    1  UNL1        0.0035
     14 C          -3.5730  -17.8621   23.6931 C.ar    1  UNL1       -0.0043
     15 C          -0.8491  -17.7639   20.8086 C.3     1  UNL1        0.4186
     16 F           0.2241  -18.2030   19.8569 F       1  UNL1       -0.1659
     17 F          -1.0691  -19.1900   21.2185 F       1  UNL1       -0.1659
     18 F          -0.6291  -16.3379   20.3987 F       1  UNL1       -0.1659
     19 C         -10.9022  -16.8125   22.6854 C.3     1  UNL1        0.0294
     20 C         -11.1168  -18.2298   23.1274 C.3     1  UNL1        0.0666
     21 S         -11.0364  -19.3469   22.1297 S.3     1  UNL1       -0.0756
     22 C          -7.7455  -19.4884   20.0764 C.ar    1  UNL1        0.1680
     23 N          -8.7570  -19.2787   18.9888 N.ar    1  UNL1       -0.1282
     24 N         -10.1129  -19.2001   19.6256 N.ar    1  UNL1       -0.1221
     25 C          -9.9394  -19.3613   21.1068 C.ar    1  UNL1        0.1932
     26 N          -8.4763  -19.5395   21.3855 N.ar    1  UNL1       -0.2884
     27 C          -7.8534  -19.7345   22.7360 C.3     1  UNL1        0.1340
     28 C          -6.4397  -22.1771   20.3321 C.3     1  UNL1        0.0522
     29 C          -5.6106  -20.9677   20.0160 C.ar    1  UNL1        0.0623
     30 N          -4.1286  -21.1027   19.8277 N.ar    1  UNL1       -0.2480
     31 C          -3.2995  -19.8933   19.5116 C.ar    1  UNL1        0.0984
     32 C          -3.9524  -18.5489   19.3837 C.ar    1  UNL1        0.0208
     33 C          -5.4344  -18.4139   19.5720 C.ar    1  UNL1        0.0058
     34 C          -6.2635  -19.6233   19.8882 C.ar    1  UNL1        0.0495
@<TRIPOS>BOND
     1    28    29    1
     2    29    30   ar
     3    30    31   ar
     4    31    32   ar
     5    32    33   ar
     6    33    34   ar
     7    34    22    1
     8    22    23   ar
     9    23    24   ar
    10    24    25   ar
    11    25    21    1
    12    21    20    1
    13    20    19    1
    14    19     1    1
    15     1     2    1
    16     2     3    1
    17     3     4    1
    18     5     4    1
    19     5     6    1
    20     6     7    1
    21     7     9    1
    22     9    10   ar
    23    10    11   ar
    24    11    12   ar
    25    12    15    1
    26    15    16    1
    27    15    17    1
    28    15    18    1
    29    12    13   ar
    30    13    14   ar
    31     5     8    1
    32    25    26   ar
    33    26    27    1
    34    34    29   ar
    35    26    22   ar
    36     8     2    1
    37     7     5    1
    38    14     9   ar
@<TRIPOS>MOLECULE
*****
 34 38 0 0 0
SMALL
GASTEIGER

@<TRIPOS>ATOM
      1 C          -9.8867  -16.6452   23.2750 C.3     1  UNL1        0.0730
      2 N          -8.7980  -16.1882   24.2002 N.3     1  UNL1       -0.2726
      3 C          -8.9925  -15.5016   25.5195 C.3     1  UNL1        0.0721
      4 C          -7.6383  -15.2266   26.1030 C.3     1  UNL1        0.0190
      5 C          -6.6068  -15.7433   25.1444 C.3     1  UNL1        0.0201
      6 C          -5.4162  -15.3428   25.9642 C.3     1  UNL1        0.0061
      7 C          -5.2217  -16.0294   24.6448 C.3     1  UNL1        0.0237
      8 C          -7.3235  -16.3376   23.9683 C.3     1  UNL1        0.0724
      9 C          -4.3097  -16.5910   23.5947 C.ar    1  UNL1       -0.0225
     10 C          -3.4365  -15.6736   22.7910 C.ar    1  UNL1       -0.0043
     11 C          -2.5245  -16.2352   21.7409 C.ar    1  UNL1        0.0035
     12 C          -2.4857  -17.7142   21.4944 C.ar    1  UNL1        0.0714
     13 C          -3.3589  -18.6317   22.2980 C.ar    1  UNL1        0.0035
     14 C          -4.2709  -18.0701   23.3481 C.ar    1  UNL1       -0.0043
     15 C          -1.5737  -18.2759   20.4442 C.3     1  UNL1        0.4186
     16 F          -0.6616  -18.8375   19.3940 F       1  UNL1       -0.1659
     17 F          -1.2467  -16.8859   19.9849 F       1  UNL1       -0.1659
     18 F          -1.9007  -19.6658   20.9036 F       1  UNL1       -0.1659
     19 C         -11.1762  -15.8826   23.1999 C.3     1  UNL1        0.0294
     20 C         -12.4846  -16.6142   23.2558 C.3     1  UNL1        0.0666
     21 S         -12.9075  -17.4834   22.1089 S.3     1  UNL1       -0.0756
     22 C         -10.2198  -18.9598   19.7294 C.ar    1  UNL1        0.1680
     23 N         -10.6254  -17.7261   18.9787 N.ar    1  UNL1       -0.1282
     24 N         -11.6816  -17.0229   19.7786 N.ar    1  UNL1       -0.1221
     25 C         -11.9287  -17.8220   21.0238 C.ar    1  UNL1        0.1932
     26 N         -11.0253  -19.0190   20.9934 N.ar    1  UNL1       -0.2884
     27 C         -10.9420  -20.0876   22.0427 C.3     1  UNL1        0.1340
     28 C          -7.5035  -18.9672   21.0027 C.3     1  UNL1        0.0522
     29 C          -7.8314  -19.9624   19.9295 C.ar    1  UNL1        0.0623
     30 N          -6.8011  -20.9614   19.4929 N.ar    1  UNL1       -0.2480
     31 C          -7.1290  -21.9567   18.4197 C.ar    1  UNL1        0.0984
     32 C          -8.4872  -21.9531   17.7829 C.ar    1  UNL1        0.0208
     33 C          -9.5174  -20.9541   18.2195 C.ar    1  UNL1        0.0058
     34 C          -9.1895  -19.9588   19.2928 C.ar    1  UNL1        0.0495
@<TRIPOS>BOND
     1    28    29    1
     2    29    30   ar
     3    30    31   ar
     4    31    32   ar
     5    32    33   ar
     6    33    34   ar
     7    34    22    1
     8    22    23   ar
     9    23    24   ar
    10    24    25   ar
    11    25    21    1
    12    21    20    1
    13    20    19    1
    14    19     1    1
    15     1     2    1
    16     2     3    1
    17     3     4    1
    18     5     4    1
    19     5     6    1
    20     6     7    1
    21     7     9    1
    22     9    10   ar
    23    10    11   ar
    24    11    12   ar
    25    12    15    1
    26    15    16    1
    27    15    17    1
    28    15    18    1
    29    12    13   ar
    30    13    14   ar
    31     5     8    1
    32    25    26   ar
    33    26    27    1
    34    34    29   ar
    35    26    22   ar
    36     8     2    1
    37     7     5    1
    38    14     9   ar
@<TRIPOS>MOLECULE
*****
 34 38 0 0 0
SMALL
GASTEIGER

@<TRIPOS>ATOM
      1 C         -18.7723   -7.1289   20.0542 C.3     1  UNL1        0.0730
      2 N         -17.9671   -8.2491   19.4654 N.3     1  UNL1       -0.2726
      3 C         -18.4306   -9.6631   19.2758 C.3     1  UNL1        0.0721
      4 C         -17.3069  -10.4399   18.6561 C.3     1  UNL1        0.0190
      5 C         -16.1491   -9.5061   18.4627 C.3     1  UNL1        0.0201
      6 C         -15.2273  -10.5226   17.8570 C.3     1  UNL1        0.0061
      7 C         -14.7639   -9.1086   18.0466 C.3     1  UNL1        0.0237
      8 C         -16.5571   -8.1521   18.9629 C.3     1  UNL1        0.0724
      9 C         -13.6966   -8.0628   17.9159 C.ar    1  UNL1       -0.0225
     10 C         -13.2104   -7.3312   19.1318 C.ar    1  UNL1       -0.0043
     11 C         -12.1431   -6.2854   19.0010 C.ar    1  UNL1        0.0035
     12 C         -11.5620   -5.9712   17.6543 C.ar    1  UNL1        0.0714
     13 C         -12.0481   -6.7028   16.4384 C.ar    1  UNL1        0.0035
     14 C         -13.1154   -7.7486   16.5692 C.ar    1  UNL1       -0.0043
     15 C         -10.4947   -4.9254   17.5236 C.3     1  UNL1        0.4186
     16 F          -9.4273   -3.8795   17.3929 F       1  UNL1       -0.1659
     17 F         -10.4429   -5.1632   16.0435 F       1  UNL1       -0.1659
     18 F         -10.5464   -4.6875   19.0037 F       1  UNL1       -0.1659
     19 C         -19.9044   -6.5285   19.2744 C.3     1  UNL1        0.0294
     20 C         -19.6476   -5.3826   18.3411 C.3     1  UNL1        0.0666
     21 S         -18.7406   -4.2635   18.7591 S.3     1  UNL1       -0.0756
     22 C         -15.0118   -3.5595   17.9425 C.ar    1  UNL1        0.1680
     23 N         -15.2125   -4.8822   17.2641 N.ar    1  UNL1       -0.1282
     24 N         -16.6336   -5.3069   17.4874 N.ar    1  UNL1       -0.1221
     25 C         -17.3114   -4.2467   18.3039 C.ar    1  UNL1        0.1932
     26 N         -16.3091   -3.1667   18.5852 N.ar    1  UNL1       -0.2884
     27 C         -16.5600   -1.9139   19.3710 C.3     1  UNL1        0.1340
     28 C         -13.5118   -3.2305   20.5196 C.3     1  UNL1        0.0522
     29 C         -12.9878   -2.6040   19.2615 C.ar    1  UNL1        0.0623
     30 N         -11.7136   -1.8130   19.2921 N.ar    1  UNL1       -0.2480
     31 C         -11.1896   -1.1864   18.0340 C.ar    1  UNL1        0.0984
     32 C         -11.9396   -1.3509   16.7453 C.ar    1  UNL1        0.0208
     33 C         -13.2137   -2.1419   16.7149 C.ar    1  UNL1        0.0058
     34 C         -13.7377   -2.7684   17.9730 C.ar    1  UNL1        0.0495
@<TRIPOS>BOND
     1    28    29    1
     2    29    30   ar
     3    30    31   ar
     4    31    32   ar
     5    32    33   ar
     6    33    34   ar
     7    34    22    1
     8    22    23   ar
     9    23    24   ar
    10    24    25   ar
    11    25    21    1
    12    21    20    1
    13    20    19    1
    14    19     1    1
    15     1     2    1
    16     2     3    1
    17     3     4    1
    18     5     4    1
    19     5     6    1
    20     6     7    1
    21     7     9    1
    22     9    10   ar
    23    10    11   ar
    24    11    12   ar
    25    12    15    1
    26    15    16    1
    27    15    17    1
    28    15    18    1
    29    12    13   ar
    30    13    14   ar
    31     5     8    1
    32    25    26   ar
    33    26    27    1
    34    34    29   ar
    35    26    22   ar
    36     8     2    1
    37     7     5    1
    38    14     9   ar
@<TRIPOS>MOLECULE
*****
 34 38 0 0 0
SMALL
GASTEIGER

@<TRIPOS>ATOM
      1 C          -9.7313  -16.3603   22.7288 C.3     1  UNL1        0.0730
      2 N          -8.7533  -16.0218   23.8146 N.3     1  UNL1       -0.2726
      3 C          -9.0917  -15.4484   25.1587 C.3     1  UNL1        0.0721
      4 C          -7.8126  -15.2695   25.9216 C.3     1  UNL1        0.0190
      5 C          -6.6837  -15.7323   25.0490 C.3     1  UNL1        0.0201
      6 C          -5.5930  -15.4440   26.0376 C.3     1  UNL1        0.0061
      7 C          -5.2546  -16.0174   24.6934 C.3     1  UNL1        0.0237
      8 C          -7.2651  -16.1972   23.7468 C.3     1  UNL1        0.0724
      9 C          -4.2342  -16.5130   23.7121 C.ar    1  UNL1       -0.0225
     10 C          -3.5953  -15.5581   22.7477 C.ar    1  UNL1       -0.0043
     11 C          -2.5749  -16.0537   21.7664 C.ar    1  UNL1        0.0035
     12 C          -2.1934  -17.5043   21.7494 C.ar    1  UNL1        0.0714
     13 C          -2.8322  -18.4592   22.7138 C.ar    1  UNL1        0.0035
     14 C          -3.8527  -17.9636   23.6951 C.ar    1  UNL1       -0.0043
     15 C          -1.1729  -17.9999   20.7681 C.3     1  UNL1        0.4186
     16 F          -0.1524  -18.4956   19.7867 F       1  UNL1       -0.1659
     17 F          -0.7677  -16.5857   20.4752 F       1  UNL1       -0.1659
     18 F          -1.5781  -19.4141   21.0610 F       1  UNL1       -0.1659
     19 C         -11.1662  -16.6331   23.0703 C.3     1  UNL1        0.0294
     20 C         -11.9641  -17.5966   22.2426 C.3     1  UNL1        0.0666
     21 S         -11.6210  -19.0568   22.2524 S.3     1  UNL1       -0.0756
     22 C          -7.8782  -19.9548   21.7515 C.ar    1  UNL1        0.1680
     23 N          -8.0840  -20.3570   23.1819 N.ar    1  UNL1       -0.1282
     24 N          -9.5110  -20.0695   23.5436 N.ar    1  UNL1       -0.1221
     25 C         -10.1873  -19.4897   22.3368 C.ar    1  UNL1        0.1932
     26 N          -9.1782  -19.4187   21.2292 N.ar    1  UNL1       -0.2884
     27 C          -9.4257  -18.9024   19.8428 C.3     1  UNL1        0.1340
     28 C          -6.3742  -17.4801   20.9680 C.3     1  UNL1        0.0522
     29 C          -5.8454  -18.8313   20.5874 C.ar    1  UNL1        0.0623
     30 N          -4.5646  -18.9450   19.8149 N.ar    1  UNL1       -0.2480
     31 C          -4.0359  -20.2961   19.4342 C.ar    1  UNL1        0.0984
     32 C          -4.7879  -21.5335   19.8260 C.ar    1  UNL1        0.0208
     33 C          -6.0687  -21.4197   20.5984 C.ar    1  UNL1        0.0058
     34 C          -6.5974  -20.0686   20.9791 C.ar    1  UNL1        0.0495
@<TRIPOS>BOND
     1    28    29    1
     2    29    30   ar
     3    30    31   ar
     4    31    32   ar
     5    32    33   ar
     6    33    34   ar
     7    34    22    1
     8    22    23   ar
     9    23    24   ar
    10    24    25   ar
    11    25    21    1
    12    21    20    1
    13    20    19    1
    14    19     1    1
    15     1     2    1
    16     2     3    1
    17     3     4    1
    18     5     4    1
    19     5     6    1
    20     6     7    1
    21     7     9    1
    22     9    10   ar
    23    10    11   ar
    24    11    12   ar
    25    12    15    1
    26    15    16    1
    27    15    17    1
    28    15    18    1
    29    12    13   ar
    30    13    14   ar
    31     5     8    1
    32    25    26   ar
    33    26    27    1
    34    34    29   ar
    35    26    22   ar
    36     8     2    1
    37     7     5    1
    38    14     9   ar
