@<TRIPOS>MOLECULE
*****
 21 23 0 0 0
SMALL
GASTEIGER

@<TRIPOS>ATOM
      1 C          -9.6912  -17.8250   21.3052 C.ar    1  UNL1        0.0537
      2 C         -10.6729  -18.2259   20.2444 C.ar    1  UNL1        0.1019
      3 N         -12.0015  -17.5357   20.1526 N.ar    1  UNL1       -0.2422
      4 C         -12.3483  -16.4445   21.1217 C.ar    1  UNL1        0.0989
      5 C         -11.3666  -16.0436   22.1825 C.ar    1  UNL1        0.0208
      6 C         -10.0380  -16.7339   22.2743 C.ar    1  UNL1        0.0060
      7 C          -9.0562  -16.3330   23.3352 C.ar    1  UNL1        0.0002
      8 C          -7.8136  -15.5806   22.9613 C.ar    1  UNL1        0.0000
      9 C          -6.8318  -15.1797   24.0221 C.ar    1  UNL1        0.0000
     10 C          -7.0926  -15.5312   25.4569 C.ar    1  UNL1        0.0000
     11 C          -8.3352  -16.2836   25.8307 C.ar    1  UNL1        0.0000
     12 C          -9.3170  -16.6845   24.7699 C.ar    1  UNL1        0.0000
     13 C          -6.0578  -19.1507   20.9791 C.ar    1  UNL1        0.1385
     14 C          -6.5784  -20.0041   22.0975 C.ar    1  UNL1        0.0375
     15 C          -8.0028  -19.6114   22.3557 C.ar    1  UNL1        0.0404
     16 C          -8.3626  -18.5152   21.3970 C.ar    1  UNL1        0.1464
     17 O          -7.1604  -18.2306   20.5462 O.2     1  UNL1       -0.4563
     18 N          -4.2940  -18.2780   19.2828 N.3     1  UNL1       -0.3148
     19 C          -4.6769  -19.2075   20.3961 C.3     1  UNL1        0.1307
     20 H          -3.3267  -18.4534   19.0109 H       1  UNL1        0.1192
     21 H          -4.3888  -17.3126   19.5981 H       1  UNL1        0.1192
@<TRIPOS>BOND
     1    18    19    1
     2    19    13    1
     3    13    14   ar
     4    14    15   ar
     5    15    16   ar
     6    16     1    1
     7     1     2   ar
     8     2     3   ar
     9     3     4   ar
    10     4     5   ar
    11     5     6   ar
    12     6     7    1
    13     7     8   ar
    14     8     9   ar
    15     9    10   ar
    16    10    11   ar
    17    11    12   ar
    18    16    17   ar
    19    17    13   ar
    20     6     1   ar
    21    12     7   ar
    22    18    20    1
    23    18    21    1
@<TRIPOS>MOLECULE
*****
 21 23 0 0 0
SMALL
GASTEIGER

@<TRIPOS>ATOM
      1 C          -9.8690  -18.3721   21.4134 C.ar    1  UNL1        0.0537
      2 C          -9.9453  -19.2226   20.1802 C.ar    1  UNL1        0.1019
      3 N          -8.6866  -19.7175   19.5316 N.ar    1  UNL1       -0.2422
      4 C          -7.3518  -19.3620   20.1161 C.ar    1  UNL1        0.0989
      5 C          -7.2755  -18.5114   21.3493 C.ar    1  UNL1        0.0208
      6 C          -8.5342  -18.0165   21.9979 C.ar    1  UNL1        0.0060
      7 C          -8.4580  -17.1660   23.2312 C.ar    1  UNL1        0.0002
      8 C          -7.8102  -15.8144   23.1713 C.ar    1  UNL1        0.0000
      9 C          -7.7340  -14.9639   24.4044 C.ar    1  UNL1        0.0000
     10 C          -8.3056  -15.4649   25.6976 C.ar    1  UNL1        0.0000
     11 C          -8.9534  -16.8164   25.7576 C.ar    1  UNL1        0.0000
     12 C          -9.0296  -17.6670   24.5243 C.ar    1  UNL1        0.0000
     13 C         -13.1724  -17.7914   23.3669 C.ar    1  UNL1        0.1385
     14 C         -12.9568  -16.4394   22.7538 C.ar    1  UNL1        0.0375
     15 C         -11.6931  -16.4925   21.9474 C.ar    1  UNL1        0.0404
     16 C         -11.1277  -17.8771   22.0621 C.ar    1  UNL1        0.1464
     17 O         -12.0420  -18.6799   22.9395 O.2     1  UNL1       -0.4563
     18 N         -14.0648  -18.5632   25.6817 N.3     1  UNL1       -0.3148
     19 C         -14.3174  -18.1855   24.2521 C.3     1  UNL1        0.1307
     20 H         -14.9487  -18.8008   26.1318 H       1  UNL1        0.1192
     21 H         -13.6350  -17.7776   26.1700 H       1  UNL1        0.1192
@<TRIPOS>BOND
     1    18    19    1
     2    19    13    1
     3    13    14   ar
     4    14    15   ar
     5    15    16   ar
     6    16     1    1
     7     1     2   ar
     8     2     3   ar
     9     3     4   ar
    10     4     5   ar
    11     5     6   ar
    12     6     7    1
    13     7     8   ar
    14     8     9   ar
    15     9    10   ar
    16    10    11   ar
    17    11    12   ar
    18    16    17   ar
    19    17    13   ar
    20     6     1   ar
    21    12     7   ar
    22    18    20    1
    23    18    21    1
@<TRIPOS>MOLECULE
*****
 21 23 0 0 0
SMALL
GASTEIGER

@<TRIPOS>ATOM
      1 C          -7.8307  -18.9332   21.0785 C.ar    1  UNL1        0.0537
      2 C          -7.2295  -19.9018   20.1037 C.ar    1  UNL1        0.1019
      3 N          -5.7809  -20.2753   20.2142 N.ar    1  UNL1       -0.2422
      4 C          -4.9337  -19.6801   21.2996 C.ar    1  UNL1        0.0989
      5 C          -5.5349  -18.7115   22.2744 C.ar    1  UNL1        0.0208
      6 C          -6.9834  -18.3381   22.1638 C.ar    1  UNL1        0.0060
      7 C          -7.5848  -17.3695   23.1387 C.ar    1  UNL1        0.0002
      8 C          -6.9996  -15.9966   23.2896 C.ar    1  UNL1        0.0000
      9 C          -7.6008  -15.0280   24.2643 C.ar    1  UNL1        0.0000
     10 C          -8.7873  -15.4322   25.0883 C.ar    1  UNL1        0.0000
     11 C          -9.3725  -16.8051   24.9374 C.ar    1  UNL1        0.0000
     12 C          -8.7712  -17.7737   23.9626 C.ar    1  UNL1        0.0000
     13 C         -11.3139  -17.2814   20.6259 C.ar    1  UNL1        0.1385
     14 C         -11.7030  -18.6887   20.9701 C.ar    1  UNL1        0.0375
     15 C         -10.4455  -19.4787   21.1816 C.ar    1  UNL1        0.0404
     16 C          -9.2793  -18.5597   20.9680 C.ar    1  UNL1        0.1464
     17 O          -9.8160  -17.2018   20.6246 O.2     1  UNL1       -0.4563
     18 N         -12.2429  -15.4919   18.9874 N.3     1  UNL1       -0.3148
     19 C         -12.2571  -16.1522   20.3342 C.3     1  UNL1        0.1307
     20 H         -12.9432  -14.7507   18.9648 H       1  UNL1        0.1192
     21 H         -12.4556  -16.1828   18.2678 H       1  UNL1        0.1192
@<TRIPOS>BOND
     1    18    19    1
     2    19    13    1
     3    13    14   ar
     4    14    15   ar
     5    15    16   ar
     6    16     1    1
     7     1     2   ar
     8     2     3   ar
     9     3     4   ar
    10     4     5   ar
    11     5     6   ar
    12     6     7    1
    13     7     8   ar
    14     8     9   ar
    15     9    10   ar
    16    10    11   ar
    17    11    12   ar
    18    16    17   ar
    19    17    13   ar
    20     6     1   ar
    21    12     7   ar
    22    18    20    1
    23    18    21    1
@<TRIPOS>MOLECULE
*****
 21 23 0 0 0
SMALL
GASTEIGER

@<TRIPOS>ATOM
      1 C          -8.1525  -17.9565   21.8028 C.ar    1  UNL1        0.0537
      2 C          -6.8948  -18.4159   21.1267 C.ar    1  UNL1        0.1019
      3 N          -6.9724  -19.3282   19.9386 N.ar    1  UNL1       -0.2422
      4 C          -8.3076  -19.7810   19.4266 C.ar    1  UNL1        0.0989
      5 C          -9.5653  -19.3216   20.1027 C.ar    1  UNL1        0.0208
      6 C          -9.4877  -18.4093   21.2909 C.ar    1  UNL1        0.0060
      7 C         -10.7454  -17.9499   21.9671 C.ar    1  UNL1        0.0002
      8 C         -11.3943  -18.8116   23.0093 C.ar    1  UNL1        0.0000
      9 C         -12.6519  -18.3522   23.6855 C.ar    1  UNL1        0.0000
     10 C         -13.2607  -17.0310   23.3195 C.ar    1  UNL1        0.0000
     11 C         -12.6118  -16.1693   22.2772 C.ar    1  UNL1        0.0000
     12 C         -11.3541  -16.6287   21.6010 C.ar    1  UNL1        0.0000
     13 C          -8.1648  -16.2048   25.2666 C.ar    1  UNL1        0.1385
     14 C          -7.7466  -15.0755   24.3721 C.ar    1  UNL1        0.0375
     15 C          -7.6911  -15.5943   22.9658 C.ar    1  UNL1        0.0404
     16 C          -8.0750  -17.0441   22.9910 C.ar    1  UNL1        0.1464
     17 O          -8.3677  -17.4214   24.4130 O.2     1  UNL1       -0.4563
     18 N          -8.1224  -14.8338   27.4730 N.3     1  UNL1       -0.3148
     19 C          -8.3478  -16.1305   26.7535 C.3     1  UNL1        0.1307
     20 H          -8.2903  -14.9648   28.4706 H       1  UNL1        0.1192
     21 H          -8.7630  -14.1278   27.1103 H       1  UNL1        0.1192
@<TRIPOS>BOND
     1    18    19    1
     2    19    13    1
     3    13    14   ar
     4    14    15   ar
     5    15    16   ar
     6    16     1    1
     7     1     2   ar
     8     2     3   ar
     9     3     4   ar
    10     4     5   ar
    11     5     6   ar
    12     6     7    1
    13     7     8   ar
    14     8     9   ar
    15     9    10   ar
    16    10    11   ar
    17    11    12   ar
    18    16    17   ar
    19    17    13   ar
    20     6     1   ar
    21    12     7   ar
    22    18    20    1
    23    18    21    1
@<TRIPOS>MOLECULE
*****
 21 23 0 0 0
SMALL
GASTEIGER

@<TRIPOS>ATOM
      1 C         -10.0351  -16.9484   22.6166 C.ar    1  UNL1        0.0537
      2 C         -11.3258  -16.1998   22.7699 C.ar    1  UNL1        0.1019
      3 N         -12.5513  -16.6601   22.0378 N.ar    1  UNL1       -0.2422
      4 C         -12.4862  -17.8692   21.1523 C.ar    1  UNL1        0.0989
      5 C         -11.1954  -18.6178   20.9990 C.ar    1  UNL1        0.0208
      6 C          -9.9699  -18.1574   21.7312 C.ar    1  UNL1        0.0060
      7 C          -8.6791  -18.9061   21.5779 C.ar    1  UNL1        0.0002
      8 C          -7.8701  -18.7572   20.3236 C.ar    1  UNL1        0.0000
      9 C          -6.5794  -19.5058   20.1702 C.ar    1  UNL1        0.0000
     10 C          -6.0976  -20.4034   21.2713 C.ar    1  UNL1        0.0000
     11 C          -6.9066  -20.5523   22.5256 C.ar    1  UNL1        0.0000
     12 C          -8.1974  -19.8037   22.6789 C.ar    1  UNL1        0.0000
     13 C          -6.5296  -15.8149   23.8383 C.ar    1  UNL1        0.1385
     14 C          -7.3175  -15.7446   25.1129 C.ar    1  UNL1        0.0375
     15 C          -8.7265  -16.1607   24.8103 C.ar    1  UNL1        0.0404
     16 C          -8.8095  -16.4881   23.3488 C.ar    1  UNL1        0.1464
     17 O          -7.4518  -16.2744   22.7481 O.2     1  UNL1       -0.4563
     18 N          -4.6534  -14.3708   22.7685 N.3     1  UNL1       -0.3148
     19 C          -5.0751  -15.4837   23.6815 C.3     1  UNL1        0.1307
     20 H          -3.6371  -14.2854   22.7835 H       1  UNL1        0.1192
     21 H          -5.0728  -13.4958   23.0829 H       1  UNL1        0.1192
@<TRIPOS>BOND
     1    18    19    1
     2    19    13    1
     3    13    14   ar
     4    14    15   ar
     5    15    16   ar
     6    16     1    1
     7     1     2   ar
     8     2     3   ar
     9     3     4   ar
    10     4     5   ar
    11     5     6   ar
    12     6     7    1
    13     7     8   ar
    14     8     9   ar
    15     9    10   ar
    16    10    11   ar
    17    11    12   ar
    18    16    17   ar
    19    17    13   ar
    20     6     1   ar
    21    12     7   ar
    22    18    20    1
    23    18    21    1
@<TRIPOS>MOLECULE
*****
 21 23 0 0 0
SMALL
GASTEIGER

@<TRIPOS>ATOM
      1 C          -9.6513  -16.0683   21.6033 C.ar    1  UNL1        0.0537
      2 C          -9.8142  -15.0119   20.5510 C.ar    1  UNL1        0.1019
      3 N         -10.8467  -15.1775   19.4756 N.ar    1  UNL1       -0.2422
      4 C         -11.7162  -16.3995   19.4525 C.ar    1  UNL1        0.0989
      5 C         -11.5533  -17.4559   20.5048 C.ar    1  UNL1        0.0208
      6 C         -10.5208  -17.2903   21.5802 C.ar    1  UNL1        0.0060
      7 C         -10.3579  -18.3467   22.6326 C.ar    1  UNL1        0.0002
      8 C         -11.2774  -18.3731   23.8175 C.ar    1  UNL1        0.0000
      9 C         -11.1145  -19.4295   24.8698 C.ar    1  UNL1        0.0000
     10 C         -10.0320  -20.4595   24.7374 C.ar    1  UNL1        0.0000
     11 C          -9.1126  -20.4331   23.5526 C.ar    1  UNL1        0.0000
     12 C          -9.2755  -19.3767   22.5002 C.ar    1  UNL1        0.0000
     13 C          -6.4861  -15.7439   23.8263 C.ar    1  UNL1        0.1385
     14 C          -7.5739  -15.5518   24.8412 C.ar    1  UNL1        0.0375
     15 C          -8.8920  -15.6499   24.1319 C.ar    1  UNL1        0.0404
     16 C          -8.6188  -15.9027   22.6788 C.ar    1  UNL1        0.1464
     17 O          -7.1319  -15.9608   22.4900 O.2     1  UNL1       -0.4563
     18 N          -4.0460  -16.1717   23.0433 N.3     1  UNL1       -0.3148
     19 C          -5.0114  -15.7229   24.1000 C.3     1  UNL1        0.1307
     20 H          -3.0928  -16.0917   23.3975 H       1  UNL1        0.1192
     21 H          -4.1514  -15.5854   22.2153 H       1  UNL1        0.1192
@<TRIPOS>BOND
     1    18    19    1
     2    19    13    1
     3    13    14   ar
     4    14    15   ar
     5    15    16   ar
     6    16     1    1
     7     1     2   ar
     8     2     3   ar
     9     3     4   ar
    10     4     5   ar
    11     5     6   ar
    12     6     7    1
    13     7     8   ar
    14     8     9   ar
    15     9    10   ar
    16    10    11   ar
    17    11    12   ar
    18    16    17   ar
    19    17    13   ar
    20     6     1   ar
    21    12     7   ar
    22    18    20    1
    23    18    21    1
@<TRIPOS>MOLECULE
*****
 21 23 0 0 0
SMALL
GASTEIGER

@<TRIPOS>ATOM
      1 C         -14.3260   -7.5397   18.6538 C.ar    1  UNL1        0.0537
      2 C         -14.6068   -9.0032   18.4828 C.ar    1  UNL1        0.1019
      3 N         -15.9421   -9.5617   18.8764 N.ar    1  UNL1       -0.2422
      4 C         -16.9966   -8.6567   19.4411 C.ar    1  UNL1        0.0989
      5 C         -16.7159   -7.1932   19.6121 C.ar    1  UNL1        0.0208
      6 C         -15.3806   -6.6347   19.2185 C.ar    1  UNL1        0.0060
      7 C         -15.0998   -5.1711   19.3895 C.ar    1  UNL1        0.0002
      8 C         -15.4811   -4.2030   18.3091 C.ar    1  UNL1        0.0000
      9 C         -15.2004   -2.7395   18.4800 C.ar    1  UNL1        0.0000
     10 C         -14.5383   -2.2440   19.7315 C.ar    1  UNL1        0.0000
     11 C         -14.1569   -3.2121   20.8120 C.ar    1  UNL1        0.0000
     12 C         -14.4377   -4.6757   20.6410 C.ar    1  UNL1        0.0000
     13 C         -10.7932   -5.9568   18.3720 C.ar    1  UNL1        0.1385
     14 C         -11.0785   -6.2864   16.9367 C.ar    1  UNL1        0.0375
     15 C         -12.4366   -6.9195   16.8676 C.ar    1  UNL1        0.0404
     16 C         -12.9907   -6.9811   18.2602 C.ar    1  UNL1        0.1464
     17 O         -11.9750   -6.3861   19.1899 O.2     1  UNL1       -0.4563
     18 N          -9.5543   -3.8600   19.2768 N.3     1  UNL1       -0.3148
     19 C          -9.5453   -5.3111   18.8972 C.3     1  UNL1        0.1307
     20 H          -8.6291   -3.5903   19.6111 H       1  UNL1        0.1192
     21 H         -10.2409   -3.7060   20.0152 H       1  UNL1        0.1192
@<TRIPOS>BOND
     1    18    19    1
     2    19    13    1
     3    13    14   ar
     4    14    15   ar
     5    15    16   ar
     6    16     1    1
     7     1     2   ar
     8     2     3   ar
     9     3     4   ar
    10     4     5   ar
    11     5     6   ar
    12     6     7    1
    13     7     8   ar
    14     8     9   ar
    15     9    10   ar
    16    10    11   ar
    17    11    12   ar
    18    16    17   ar
    19    17    13   ar
    20     6     1   ar
    21    12     7   ar
    22    18    20    1
    23    18    21    1
@<TRIPOS>MOLECULE
*****
 21 23 0 0 0
SMALL
GASTEIGER

@<TRIPOS>ATOM
      1 C         -11.2543   -2.4564   17.6417 C.ar    1  UNL1        0.0537
      2 C         -10.3314   -1.5454   16.8880 C.ar    1  UNL1        0.1019
      3 N         -10.7454   -0.1339   16.5945 N.ar    1  UNL1       -0.2422
      4 C         -12.0825    0.3666   17.0547 C.ar    1  UNL1        0.0989
      5 C         -13.0055   -0.5444   17.8084 C.ar    1  UNL1        0.0208
      6 C         -12.5914   -1.9559   18.1019 C.ar    1  UNL1        0.0060
      7 C         -13.5144   -2.8670   18.8556 C.ar    1  UNL1        0.0002
      8 C         -13.3739   -3.0148   20.3417 C.ar    1  UNL1        0.0000
      9 C         -14.2968   -3.9258   21.0954 C.ar    1  UNL1        0.0000
     10 C         -15.3604   -4.6892   20.3630 C.ar    1  UNL1        0.0000
     11 C         -15.5009   -4.5414   18.8769 C.ar    1  UNL1        0.0000
     12 C         -14.5779   -3.6303   18.1232 C.ar    1  UNL1        0.0000
     13 C         -10.6452   -6.2850   17.8328 C.ar    1  UNL1        0.1385
     14 C          -9.7610   -5.7952   18.9411 C.ar    1  UNL1        0.0375
     15 C          -9.8816   -4.3014   19.0044 C.ar    1  UNL1        0.0404
     16 C         -10.8403   -3.8680   17.9352 C.ar    1  UNL1        0.1464
     17 O         -11.3122   -5.0939   17.2111 O.2     1  UNL1       -0.4563
     18 N          -9.8572   -8.7603   17.8781 N.3     1  UNL1       -0.3148
     19 C         -10.8299   -7.7149   17.4188 C.3     1  UNL1        0.1307
     20 H         -10.1336   -9.6688   17.5057 H       1  UNL1        0.1192
     21 H          -9.8540   -8.7973   18.8974 H       1  UNL1        0.1192
@<TRIPOS>BOND
     1    18    19    1
     2    19    13    1
     3    13    14   ar
     4    14    15   ar
     5    15    16   ar
     6    16     1    1
     7     1     2   ar
     8     2     3   ar
     9     3     4   ar
    10     4     5   ar
    11     5     6   ar
    12     6     7    1
    13     7     8   ar
    14     8     9   ar
    15     9    10   ar
    16    10    11   ar
    17    11    12   ar
    18    16    17   ar
    19    17    13   ar
    20     6     1   ar
    21    12     7   ar
    22    18    20    1
    23    18    21    1
@<TRIPOS>MOLECULE
*****
 21 23 0 0 0
SMALL
GASTEIGER

@<TRIPOS>ATOM
      1 C         -14.6161   -6.4265   19.0653 C.ar    1  UNL1        0.0537
      2 C         -15.8624   -7.2266   19.3034 C.ar    1  UNL1        0.1019
      3 N         -15.9738   -8.6205   18.7607 N.ar    1  UNL1       -0.2422
      4 C         -14.8390   -9.2143   17.9799 C.ar    1  UNL1        0.0989
      5 C         -13.5927   -8.4143   17.7419 C.ar    1  UNL1        0.0208
      6 C         -13.4813   -7.0204   18.2846 C.ar    1  UNL1        0.0060
      7 C         -12.2350   -6.2202   18.0466 C.ar    1  UNL1        0.0002
      8 C         -11.0698   -6.3508   18.9821 C.ar    1  UNL1        0.0000
      9 C          -9.8235   -5.5508   18.7442 C.ar    1  UNL1        0.0000
     10 C          -9.7424   -4.6200   17.5706 C.ar    1  UNL1        0.0000
     11 C         -10.9076   -4.4894   16.6350 C.ar    1  UNL1        0.0000
     12 C         -12.1539   -5.2895   16.8731 C.ar    1  UNL1        0.0000
     13 C         -14.7749   -2.6373   19.8913 C.ar    1  UNL1        0.1385
     14 C         -13.8911   -3.1377   20.9951 C.ar    1  UNL1        0.0375
     15 C         -13.7241   -4.6181   20.8201 C.ar    1  UNL1        0.0404
     16 C         -14.5046   -5.0325   19.6080 C.ar    1  UNL1        0.1464
     17 O         -15.1541   -3.8083   19.0340 O.2     1  UNL1       -0.4563
     18 N         -16.3392   -0.6487   20.4819 N.3     1  UNL1       -0.3148
     19 C         -15.2042   -1.2154   19.6815 C.3     1  UNL1        0.1307
     20 H         -16.4941    0.3226   20.2118 H       1  UNL1        0.1192
     21 H         -16.1104   -0.6931   21.4749 H       1  UNL1        0.1192
@<TRIPOS>BOND
     1    18    19    1
     2    19    13    1
     3    13    14   ar
     4    14    15   ar
     5    15    16   ar
     6    16     1    1
     7     1     2   ar
     8     2     3   ar
     9     3     4   ar
    10     4     5   ar
    11     5     6   ar
    12     6     7    1
    13     7     8   ar
    14     8     9   ar
    15     9    10   ar
    16    10    11   ar
    17    11    12   ar
    18    16    17   ar
    19    17    13   ar
    20     6     1   ar
    21    12     7   ar
    22    18    20    1
    23    18    21    1
