@<TRIPOS>MOLECULE
*****
 22 24 0 0 0
SMALL
GASTEIGER

@<TRIPOS>ATOM
      1 C          -7.2560  -18.0530   21.9781 C.3     1  UNL1        0.1894
      2 C          -8.5599  -18.7923   22.0326 C.ar    1  UNL1        0.0172
      3 C          -8.9718  -19.4947   23.2923 C.ar    1  UNL1       -0.0008
      4 C         -10.2758  -20.2341   23.3468 C.ar    1  UNL1       -0.0002
      5 C         -11.1679  -20.2711   22.1415 C.ar    1  UNL1       -0.0000
      6 C         -10.7560  -19.5687   20.8817 C.ar    1  UNL1       -0.0002
      7 C          -9.4521  -18.8293   20.8272 C.ar    1  UNL1       -0.0008
      8 C          -6.0045  -18.7691   21.5644 C.3     1  UNL1        0.0615
      9 C          -5.7146  -19.3209   20.2001 C.3     1  UNL1        0.0224
     10 C          -4.3541  -19.9519   20.2348 C.3     1  UNL1        0.0687
     11 N          -3.8033  -19.7900   21.6207 N.3     1  UNL1       -0.2973
     12 C          -4.8233  -19.0590   22.4424 C.3     1  UNL1        0.0725
     13 H          -2.9362  -19.2538   21.5881 H       1  UNL1        0.1232
     14 O          -7.2034  -16.5976   22.3374 O.3     1  UNL1       -0.4738
     15 CL         -8.5800  -15.3272   27.1842 Cl      1  UNL1       -0.0813
     16 C          -7.5142  -15.5464   26.1516 C.ar    1  UNL1        0.0712
     17 C          -6.0710  -15.3494   26.5098 C.ar    1  UNL1        0.0125
     18 C          -5.0053  -15.5685   25.4773 C.ar    1  UNL1        0.0040
     19 C          -5.3828  -15.9845   24.0865 C.ar    1  UNL1        0.0378
     20 C          -6.8260  -16.1815   23.7282 C.ar    1  UNL1        0.1501
     21 C          -7.8917  -15.9624   24.7608 C.ar    1  UNL1        0.1020
     22 CL         -9.3349  -16.1594   24.4025 Cl      1  UNL1       -0.0782
@<TRIPOS>BOND
     1    15    16    1
     2    16    17   ar
     3    17    18   ar
     4    18    19   ar
     5    19    20   ar
     6    20    14    1
     7     1    14    1
     8     1     2    1
     9     2     3   ar
    10     3     4   ar
    11     4     5   ar
    12     5     6   ar
    13     6     7   ar
    14     1     8    1
    15     8     9    1
    16     9    10    1
    17    10    11    1
    18    11    12    1
    19    20    21   ar
    20    21    22    1
    21    21    16   ar
    22     7     2   ar
    23    12     8    1
    24    11    13    1
@<TRIPOS>MOLECULE
*****
 22 24 0 0 0
SMALL
GASTEIGER

@<TRIPOS>ATOM
      1 C          -7.6941  -18.2198   22.6549 C.3     1  UNL1        0.1894
      2 C          -6.3699  -18.6379   22.0877 C.ar    1  UNL1        0.0172
      3 C          -6.3123  -19.3800   20.7855 C.ar    1  UNL1       -0.0008
      4 C          -4.9881  -19.7981   20.2183 C.ar    1  UNL1       -0.0002
      5 C          -3.7214  -19.4740   20.9534 C.ar    1  UNL1       -0.0000
      6 C          -3.7789  -18.7319   22.2558 C.ar    1  UNL1       -0.0002
      7 C          -5.1031  -18.3138   22.8229 C.ar    1  UNL1       -0.0008
      8 C          -7.8355  -16.8848   23.3242 C.3     1  UNL1        0.0615
      9 C          -8.2783  -16.6499   24.7379 C.3     1  UNL1        0.0224
     10 C          -8.2754  -15.1703   24.9847 C.3     1  UNL1        0.0687
     11 N          -7.8309  -14.4909   23.7234 N.3     1  UNL1       -0.2973
     12 C          -7.5591  -15.5505   22.6972 C.3     1  UNL1        0.0725
     13 H          -6.9818  -13.9542   23.9001 H       1  UNL1        0.1232
     14 O          -8.8768  -19.1367   22.5528 O.3     1  UNL1       -0.4738
     15 CL        -13.7645  -17.9770   23.8818 Cl      1  UNL1       -0.0813
     16 C         -12.6684  -18.0052   22.8581 C.ar    1  UNL1        0.0712
     17 C         -12.9203  -17.4816   21.4751 C.ar    1  UNL1        0.0125
     18 C         -11.8243  -17.5098   20.4514 C.ar    1  UNL1        0.0040
     19 C         -10.4765  -18.0615   20.8107 C.ar    1  UNL1        0.0378
     20 C         -10.2247  -18.5850   22.1936 C.ar    1  UNL1        0.1501
     21 C         -11.3206  -18.5568   23.2173 C.ar    1  UNL1        0.1020
     22 CL        -11.0688  -19.0803   24.6002 Cl      1  UNL1       -0.0782
@<TRIPOS>BOND
     1    15    16    1
     2    16    17   ar
     3    17    18   ar
     4    18    19   ar
     5    19    20   ar
     6    20    14    1
     7     1    14    1
     8     1     2    1
     9     2     3   ar
    10     3     4   ar
    11     4     5   ar
    12     5     6   ar
    13     6     7   ar
    14     1     8    1
    15     8     9    1
    16     9    10    1
    17    10    11    1
    18    11    12    1
    19    20    21   ar
    20    21    22    1
    21    21    16   ar
    22     7     2   ar
    23    12     8    1
    24    11    13    1
@<TRIPOS>MOLECULE
*****
 22 24 0 0 0
SMALL
GASTEIGER

@<TRIPOS>ATOM
      1 C          -7.3964  -18.1001   22.2152 C.3     1  UNL1        0.1894
      2 C          -6.2156  -18.8847   21.7253 C.ar    1  UNL1        0.0172
      3 C          -4.8686  -18.6839   22.3540 C.ar    1  UNL1       -0.0008
      4 C          -3.6878  -19.4686   21.8641 C.ar    1  UNL1       -0.0002
      5 C          -3.8539  -20.4540   20.7455 C.ar    1  UNL1       -0.0000
      6 C          -5.2009  -20.6548   20.1167 C.ar    1  UNL1       -0.0002
      7 C          -6.3818  -19.8702   20.6066 C.ar    1  UNL1       -0.0008
      8 C          -8.7181  -18.7806   22.4158 C.3     1  UNL1        0.0615
      9 C          -9.0094  -19.8648   23.4105 C.3     1  UNL1        0.0224
     10 C         -10.4518  -20.2507   23.2664 C.3     1  UNL1        0.0687
     11 N         -11.0518  -19.4048   22.1826 N.3     1  UNL1       -0.2973
     12 C          -9.9803  -18.4963   21.6569 C.3     1  UNL1        0.0725
     13 H         -11.8202  -18.8511   22.5611 H       1  UNL1        0.1232
     14 O          -7.2556  -16.6350   22.5044 O.3     1  UNL1       -0.4738
     15 CL         -8.6015  -15.2745   27.3354 Cl      1  UNL1       -0.0813
     16 C          -7.5437  -15.4954   26.2950 C.ar    1  UNL1        0.0712
     17 C          -6.1011  -15.2568   26.6297 C.ar    1  UNL1        0.0125
     18 C          -5.0434  -15.4777   25.5893 C.ar    1  UNL1        0.0040
     19 C          -5.4282  -15.9371   24.2143 C.ar    1  UNL1        0.0378
     20 C          -6.8708  -16.1756   23.8796 C.ar    1  UNL1        0.1501
     21 C          -7.9285  -15.9548   24.9199 C.ar    1  UNL1        0.1020
     22 CL         -9.3711  -16.1933   24.5852 Cl      1  UNL1       -0.0782
@<TRIPOS>BOND
     1    15    16    1
     2    16    17   ar
     3    17    18   ar
     4    18    19   ar
     5    19    20   ar
     6    20    14    1
     7     1    14    1
     8     1     2    1
     9     2     3   ar
    10     3     4   ar
    11     4     5   ar
    12     5     6   ar
    13     6     7   ar
    14     1     8    1
    15     8     9    1
    16     9    10    1
    17    10    11    1
    18    11    12    1
    19    20    21   ar
    20    21    22    1
    21    21    16   ar
    22     7     2   ar
    23    12     8    1
    24    11    13    1
@<TRIPOS>MOLECULE
*****
 22 24 0 0 0
SMALL
GASTEIGER

@<TRIPOS>ATOM
      1 C          -8.2694  -17.3060   21.9682 C.3     1  UNL1        0.1894
      2 C          -9.7585  -17.4708   22.0437 C.ar    1  UNL1        0.0172
      3 C         -10.6513  -16.6214   21.1886 C.ar    1  UNL1       -0.0008
      4 C         -12.1404  -16.7862   21.2641 C.ar    1  UNL1       -0.0002
      5 C         -12.7365  -17.8003   22.1948 C.ar    1  UNL1       -0.0000
      6 C         -11.8436  -18.6496   23.0500 C.ar    1  UNL1       -0.0002
      7 C         -10.3546  -18.4849   22.9745 C.ar    1  UNL1       -0.0008
      8 C          -7.4121  -18.4427   21.4959 C.3     1  UNL1        0.0615
      9 C          -6.1314  -18.9025   22.1272 C.3     1  UNL1        0.0224
     10 C          -5.6127  -20.0631   21.3308 C.3     1  UNL1        0.0687
     11 N          -6.5729  -20.3205   20.2074 N.3     1  UNL1       -0.2973
     12 C          -7.6849  -19.3190   20.3095 C.3     1  UNL1        0.0725
     13 H          -6.9497  -21.2652   20.2838 H       1  UNL1        0.1232
     14 O          -7.6378  -16.0047   22.3649 O.3     1  UNL1       -0.4738
     15 CL         -8.3593  -15.1854   27.4451 Cl      1  UNL1       -0.0813
     16 C          -7.4379  -15.4236   26.2857 C.ar    1  UNL1        0.0712
     17 C          -5.9558  -15.4904   26.5069 C.ar    1  UNL1        0.0125
     18 C          -5.0344  -15.7286   25.3476 C.ar    1  UNL1        0.0040
     19 C          -5.5950  -15.9000   23.9669 C.ar    1  UNL1        0.0378
     20 C          -7.0771  -15.8332   23.7457 C.ar    1  UNL1        0.1501
     21 C          -7.9985  -15.5950   24.9050 C.ar    1  UNL1        0.1020
     22 CL         -9.4806  -15.5282   24.6838 Cl      1  UNL1       -0.0782
@<TRIPOS>BOND
     1    15    16    1
     2    16    17   ar
     3    17    18   ar
     4    18    19   ar
     5    19    20   ar
     6    20    14    1
     7     1    14    1
     8     1     2    1
     9     2     3   ar
    10     3     4   ar
    11     4     5   ar
    12     5     6   ar
    13     6     7   ar
    14     1     8    1
    15     8     9    1
    16     9    10    1
    17    10    11    1
    18    11    12    1
    19    20    21   ar
    20    21    22    1
    21    21    16   ar
    22     7     2   ar
    23    12     8    1
    24    11    13    1
@<TRIPOS>MOLECULE
*****
 22 24 0 0 0
SMALL
GASTEIGER

@<TRIPOS>ATOM
      1 C         -10.3677  -16.6816   23.1528 C.3     1  UNL1        0.1894
      2 C         -10.0092  -18.0936   23.5100 C.ar    1  UNL1        0.0172
      3 C          -8.9462  -18.8161   22.7368 C.ar    1  UNL1       -0.0008
      4 C          -8.5877  -20.2281   23.0940 C.ar    1  UNL1       -0.0002
      5 C          -9.2922  -20.9177   24.2245 C.ar    1  UNL1       -0.0000
      6 C         -10.3553  -20.1952   24.9979 C.ar    1  UNL1       -0.0002
      7 C         -10.7138  -18.7832   24.6406 C.ar    1  UNL1       -0.0008
      8 C         -11.0793  -16.3915   21.8645 C.3     1  UNL1        0.0615
      9 C         -10.4767  -15.7505   20.6495 C.3     1  UNL1        0.0224
     10 C         -11.5433  -15.6543   19.5991 C.3     1  UNL1        0.0687
     11 N         -12.8050  -16.2357   20.1651 N.3     1  UNL1       -0.2973
     12 C         -12.5182  -16.6913   21.5651 C.3     1  UNL1        0.0725
     13 H         -13.1057  -17.0284   19.5979 H       1  UNL1        0.1232
     14 O         -10.0146  -15.5597   24.0837 O.3     1  UNL1       -0.4738
     15 CL         -4.8337  -15.2437   23.8426 Cl      1  UNL1       -0.0813
     16 C          -6.0903  -15.3878   24.6490 C.ar    1  UNL1        0.0712
     17 C          -6.0129  -15.5181   26.1414 C.ar    1  UNL1        0.0125
     18 C          -7.2694  -15.6622   26.9478 C.ar    1  UNL1        0.0040
     19 C          -8.6032  -15.6761   26.2619 C.ar    1  UNL1        0.0378
     20 C          -8.6806  -15.5458   24.7696 C.ar    1  UNL1        0.1501
     21 C          -7.4241  -15.4017   23.9631 C.ar    1  UNL1        0.1020
     22 CL         -7.5015  -15.2714   22.4708 Cl      1  UNL1       -0.0782
@<TRIPOS>BOND
     1    15    16    1
     2    16    17   ar
     3    17    18   ar
     4    18    19   ar
     5    19    20   ar
     6    20    14    1
     7     1    14    1
     8     1     2    1
     9     2     3   ar
    10     3     4   ar
    11     4     5   ar
    12     5     6   ar
    13     6     7   ar
    14     1     8    1
    15     8     9    1
    16     9    10    1
    17    10    11    1
    18    11    12    1
    19    20    21   ar
    20    21    22    1
    21    21    16   ar
    22     7     2   ar
    23    12     8    1
    24    11    13    1
@<TRIPOS>MOLECULE
*****
 22 24 0 0 0
SMALL
GASTEIGER

@<TRIPOS>ATOM
      1 C          -8.2768  -16.5568   23.8420 C.3     1  UNL1        0.1894
      2 C          -9.6559  -17.1420   23.7658 C.ar    1  UNL1        0.0172
      3 C          -9.9667  -18.4248   24.4784 C.ar    1  UNL1       -0.0008
      4 C         -11.3457  -19.0100   24.4022 C.ar    1  UNL1       -0.0002
      5 C         -12.4140  -18.3123   23.6134 C.ar    1  UNL1       -0.0000
      6 C         -12.1032  -17.0295   22.9008 C.ar    1  UNL1       -0.0002
      7 C         -10.7241  -16.4443   22.9770 C.ar    1  UNL1       -0.0008
      8 C          -7.7773  -15.9796   25.1333 C.3     1  UNL1        0.0615
      9 C          -8.4397  -16.1116   26.4727 C.3     1  UNL1        0.0224
     10 C          -7.5996  -15.3827   27.4791 C.3     1  UNL1        0.0687
     11 N          -6.4180  -14.8002   26.7617 N.3     1  UNL1       -0.2973
     12 C          -6.5279  -15.1691   25.3119 C.3     1  UNL1        0.0725
     13 H          -5.5550  -15.1798   27.1510 H       1  UNL1        0.1232
     14 O          -7.3973  -16.5488   22.6270 O.3     1  UNL1       -0.4738
     15 CL         -5.9735  -21.0895   20.5401 Cl      1  UNL1       -0.0813
     16 C          -5.6592  -19.8966   21.3934 C.ar    1  UNL1        0.0712
     17 C          -4.3188  -19.7810   22.0566 C.ar    1  UNL1        0.0125
     18 C          -4.0045  -18.5881   22.9099 C.ar    1  UNL1        0.0040
     19 C          -5.0306  -17.5108   23.1000 C.ar    1  UNL1        0.0378
     20 C          -6.3711  -17.6263   22.4368 C.ar    1  UNL1        0.1501
     21 C          -6.6854  -18.8192   21.5835 C.ar    1  UNL1        0.1020
     22 CL         -8.0259  -18.9347   20.9203 Cl      1  UNL1       -0.0782
@<TRIPOS>BOND
     1    15    16    1
     2    16    17   ar
     3    17    18   ar
     4    18    19   ar
     5    19    20   ar
     6    20    14    1
     7     1    14    1
     8     1     2    1
     9     2     3   ar
    10     3     4   ar
    11     4     5   ar
    12     5     6   ar
    13     6     7   ar
    14     1     8    1
    15     8     9    1
    16     9    10    1
    17    10    11    1
    18    11    12    1
    19    20    21   ar
    20    21    22    1
    21    21    16   ar
    22     7     2   ar
    23    12     8    1
    24    11    13    1
@<TRIPOS>MOLECULE
*****
 22 24 0 0 0
SMALL
GASTEIGER

@<TRIPOS>ATOM
      1 C          -8.2705  -16.5528   23.8542 C.3     1  UNL1        0.1894
      2 C          -9.6478  -17.1426   23.7835 C.ar    1  UNL1        0.0172
      3 C         -10.7236  -16.4446   23.0054 C.ar    1  UNL1       -0.0008
      4 C         -12.1009  -17.0345   22.9347 C.ar    1  UNL1       -0.0002
      5 C         -12.4025  -18.3224   23.6420 C.ar    1  UNL1       -0.0000
      6 C         -11.3267  -19.0205   24.4201 C.ar    1  UNL1       -0.0002
      7 C          -9.9494  -18.4306   24.4909 C.ar    1  UNL1       -0.0008
      8 C          -7.7646  -15.9815   25.1457 C.3     1  UNL1        0.0615
      9 C          -8.4421  -16.0837   26.4801 C.3     1  UNL1        0.0224
     10 C          -7.5887  -15.3731   27.4887 C.3     1  UNL1        0.0687
     11 N          -6.3840  -14.8319   26.7774 N.3     1  UNL1       -0.2973
     12 C          -6.4927  -15.2080   25.3294 C.3     1  UNL1        0.0725
     13 H          -5.5362  -15.2347   27.1769 H       1  UNL1        0.1232
     14 O          -7.3990  -16.5342   22.6335 O.3     1  UNL1       -0.4738
     15 CL         -3.4494  -19.8822   22.1954 Cl      1  UNL1       -0.0813
     16 C          -4.8613  -19.4897   21.8752 C.ar    1  UNL1        0.0712
     17 C          -5.7103  -20.3787   21.0156 C.ar    1  UNL1        0.0125
     18 C          -7.1222  -19.9863   20.6954 C.ar    1  UNL1        0.0040
     19 C          -7.6850  -18.7048   21.2347 C.ar    1  UNL1        0.0378
     20 C          -6.8360  -17.8157   22.0942 C.ar    1  UNL1        0.1501
     21 C          -5.4242  -18.2082   22.4144 C.ar    1  UNL1        0.1020
     22 CL         -4.5752  -17.3191   23.2740 Cl      1  UNL1       -0.0782
@<TRIPOS>BOND
     1    15    16    1
     2    16    17   ar
     3    17    18   ar
     4    18    19   ar
     5    19    20   ar
     6    20    14    1
     7     1    14    1
     8     1     2    1
     9     2     3   ar
    10     3     4   ar
    11     4     5   ar
    12     5     6   ar
    13     6     7   ar
    14     1     8    1
    15     8     9    1
    16     9    10    1
    17    10    11    1
    18    11    12    1
    19    20    21   ar
    20    21    22    1
    21    21    16   ar
    22     7     2   ar
    23    12     8    1
    24    11    13    1
@<TRIPOS>MOLECULE
*****
 22 24 0 0 0
SMALL
GASTEIGER

@<TRIPOS>ATOM
      1 C          -7.8252  -17.8935   22.5715 C.3     1  UNL1        0.1894
      2 C          -8.9067  -18.1203   21.5571 C.ar    1  UNL1        0.0172
      3 C         -10.0743  -17.1816   21.4830 C.ar    1  UNL1       -0.0008
      4 C         -11.1558  -17.4084   20.4686 C.ar    1  UNL1       -0.0002
      5 C         -11.0696  -18.5739   19.5282 C.ar    1  UNL1       -0.0000
      6 C          -9.9019  -19.5126   19.6023 C.ar    1  UNL1       -0.0002
      7 C          -8.8204  -19.2858   20.6167 C.ar    1  UNL1       -0.0008
      8 C          -7.8518  -16.6669   23.4346 C.3     1  UNL1        0.0615
      9 C          -8.4627  -16.5632   24.8006 C.3     1  UNL1        0.0224
     10 C          -8.2606  -15.1609   25.2935 C.3     1  UNL1        0.0687
     11 N          -7.5248  -14.3980   24.2320 N.3     1  UNL1       -0.2973
     12 C          -7.2722  -15.3288   23.0832 C.3     1  UNL1        0.0725
     13 H          -6.6378  -14.0571   24.6027 H       1  UNL1        0.1232
     14 O          -6.7172  -18.8932   22.7228 O.3     1  UNL1       -0.4738
     15 CL         -2.8023  -19.1751   19.3178 Cl      1  UNL1       -0.0813
     16 C          -3.3618  -18.6714   20.6152 C.ar    1  UNL1        0.0712
     17 C          -2.5234  -17.8050   21.5075 C.ar    1  UNL1        0.0125
     18 C          -3.0828  -17.3013   22.8049 C.ar    1  UNL1        0.0040
     19 C          -4.4807  -17.6640   23.2100 C.ar    1  UNL1        0.0378
     20 C          -5.3192  -18.5304   22.3177 C.ar    1  UNL1        0.1501
     21 C          -4.7598  -19.0341   21.0203 C.ar    1  UNL1        0.1020
     22 CL         -5.5983  -19.9006   20.1280 Cl      1  UNL1       -0.0782
@<TRIPOS>BOND
     1    15    16    1
     2    16    17   ar
     3    17    18   ar
     4    18    19   ar
     5    19    20   ar
     6    20    14    1
     7     1    14    1
     8     1     2    1
     9     2     3   ar
    10     3     4   ar
    11     4     5   ar
    12     5     6   ar
    13     6     7   ar
    14     1     8    1
    15     8     9    1
    16     9    10    1
    17    10    11    1
    18    11    12    1
    19    20    21   ar
    20    21    22    1
    21    21    16   ar
    22     7     2   ar
    23    12     8    1
    24    11    13    1
@<TRIPOS>MOLECULE
*****
 22 24 0 0 0
SMALL
GASTEIGER

@<TRIPOS>ATOM
      1 C          -7.9239  -17.9007   22.5761 C.3     1  UNL1        0.1894
      2 C          -9.0076  -18.0956   21.5574 C.ar    1  UNL1        0.0172
      3 C          -8.9852  -19.2965   20.6590 C.ar    1  UNL1       -0.0008
      4 C         -10.0689  -19.4914   19.6403 C.ar    1  UNL1       -0.0002
      5 C         -11.1749  -18.4853   19.5201 C.ar    1  UNL1       -0.0000
      6 C         -11.1973  -17.2843   20.4185 C.ar    1  UNL1       -0.0002
      7 C         -10.1137  -17.0894   21.4372 C.ar    1  UNL1       -0.0008
      8 C          -7.9107  -16.6679   23.4306 C.3     1  UNL1        0.0615
      9 C          -8.5212  -16.5338   24.7942 C.3     1  UNL1        0.0224
     10 C          -8.2725  -15.1358   25.2779 C.3     1  UNL1        0.0687
     11 N          -7.5083  -14.4060   24.2132 N.3     1  UNL1       -0.2973
     12 C          -7.2848  -15.3529   23.0715 C.3     1  UNL1        0.0725
     13 H          -6.6112  -14.0930   24.5840 H       1  UNL1        0.1232
     14 O          -6.8535  -18.9386   22.7403 O.3     1  UNL1       -0.4738
     15 CL         -1.9550  -17.2843   22.2230 Cl      1  UNL1       -0.0813
     16 C          -3.1419  -18.0209   21.6765 C.ar    1  UNL1        0.0712
     17 C          -3.0665  -18.6668   20.3248 C.ar    1  UNL1        0.0125
     18 C          -4.2534  -19.4034   19.7783 C.ar    1  UNL1        0.0040
     19 C          -5.5157  -19.4940   20.5835 C.ar    1  UNL1        0.0378
     20 C          -5.5911  -18.8480   21.9351 C.ar    1  UNL1        0.1501
     21 C          -4.4042  -18.1114   22.4816 C.ar    1  UNL1        0.1020
     22 CL         -4.4797  -17.4655   23.8333 Cl      1  UNL1       -0.0782
@<TRIPOS>BOND
     1    15    16    1
     2    16    17   ar
     3    17    18   ar
     4    18    19   ar
     5    19    20   ar
     6    20    14    1
     7     1    14    1
     8     1     2    1
     9     2     3   ar
    10     3     4   ar
    11     4     5   ar
    12     5     6   ar
    13     6     7   ar
    14     1     8    1
    15     8     9    1
    16     9    10    1
    17    10    11    1
    18    11    12    1
    19    20    21   ar
    20    21    22    1
    21    21    16   ar
    22     7     2   ar
    23    12     8    1
    24    11    13    1
