@<TRIPOS>MOLECULE
*****
 22 24 0 0 0
SMALL
GASTEIGER

@<TRIPOS>ATOM
      1 C          -7.2021  -19.0234   20.9508 C.3     1  UNL1        0.0629
      2 C          -8.1569  -19.4264   19.8664 C.3     1  UNL1        0.0247
      3 C          -9.6356  -19.3016   20.0847 C.3     1  UNL1        0.0690
      4 N         -10.1596  -18.7737   21.3873 N.3     1  UNL1       -0.2985
      5 C          -9.2048  -18.3707   22.4716 C.3     1  UNL1        0.0548
      6 C          -7.7261  -18.4955   22.2534 C.3     1  UNL1        0.0234
      7 H         -10.7604  -19.4991   21.7786 H       1  UNL1        0.1232
      8 O          -2.1037  -20.2026   21.6562 O.2     1  UNL1       -0.2645
      9 C          -3.3798  -19.6903   21.0569 C.ar    1  UNL1        0.2884
     10 C          -4.7443  -19.7878   21.6722 C.ar    1  UNL1        0.0986
     11 C          -5.7233  -19.1483   20.7326 C.ar    1  UNL1        0.1547
     12 O          -4.9638  -18.6556   19.5367 O.2     1  UNL1       -0.3802
     13 N          -3.5155  -18.9905   19.7370 N.ar    1  UNL1       -0.1839
     14 H          -2.7826  -18.7869   19.1120 H       1  UNL1        0.2107
     15 C          -9.7288  -17.8428   23.7743 C.3     1  UNL1        0.0204
     16 C          -9.5050  -16.4070   24.1461 C.3     1  UNL1        0.0277
     17 C          -8.2850  -16.0156   24.9261 C.ar    1  UNL1       -0.0221
     18 C          -7.0304  -15.6176   24.2065 C.ar    1  UNL1       -0.0043
     19 C          -5.8104  -15.2263   24.9865 C.ar    1  UNL1       -0.0003
     20 C          -5.8450  -15.2329   26.4861 C.ar    1  UNL1       -0.0000
     21 C          -7.0995  -15.6308   27.2057 C.ar    1  UNL1       -0.0003
     22 C          -8.3195  -16.0222   26.4256 C.ar    1  UNL1       -0.0043
@<TRIPOS>BOND
     1     8     9    2
     2     9    10   ar
     3    10    11   ar
     4     1    11    1
     5     1     2    1
     6     2     3    1
     7     3     4    1
     8     4     5    1
     9     5    15    1
    10    15    16    1
    11    16    17    1
    12    17    18   ar
    13    18    19   ar
    14    19    20   ar
    15    20    21   ar
    16    21    22   ar
    17     5     6    1
    18    11    12   ar
    19    12    13   ar
    20    13     9   ar
    21     6     1    1
    22    22    17   ar
    23     4     7    1
    24    13    14    1
@<TRIPOS>MOLECULE
*****
 22 24 0 0 0
SMALL
GASTEIGER

@<TRIPOS>ATOM
      1 C          -5.0968  -19.2036   20.5560 C.3     1  UNL1        0.0629
      2 C          -5.2256  -19.8102   21.9218 C.3     1  UNL1        0.0247
      3 C          -6.5645  -20.2751   22.4126 C.3     1  UNL1        0.0690
      4 N          -7.7746  -20.1335   21.5377 N.3     1  UNL1       -0.2985
      5 C          -7.6459  -19.5270   20.1719 C.3     1  UNL1        0.0548
      6 C          -6.3069  -19.0620   19.6810 C.3     1  UNL1        0.0234
      7 H          -8.4445  -19.5615   22.0520 H       1  UNL1        0.1232
      8 O           0.1196  -18.7290   19.8888 O.2     1  UNL1       -0.2645
      9 C          -1.3601  -18.5205   19.7584 C.ar    1  UNL1        0.2884
     10 C          -2.4251  -19.2700   20.5026 C.ar    1  UNL1        0.0986
     11 C          -3.7578  -18.7386   20.0650 C.ar    1  UNL1        0.1547
     12 O          -3.5165  -17.6606   19.0504 O.2     1  UNL1       -0.3802
     13 N          -2.0346  -17.5257   18.8608 N.ar    1  UNL1       -0.1839
     14 H          -1.5839  -16.8951   18.2539 H       1  UNL1        0.2107
     15 C          -8.8560  -19.3854   19.2970 C.3     1  UNL1        0.0204
     16 C         -10.2081  -19.7724   19.8186 C.3     1  UNL1        0.0277
     17 C         -10.9808  -18.8184   20.6804 C.ar    1  UNL1       -0.0221
     18 C         -11.3000  -19.1806   22.1006 C.ar    1  UNL1       -0.0043
     19 C         -12.0727  -18.2265   22.9624 C.ar    1  UNL1       -0.0003
     20 C         -12.5262  -16.9102   22.4040 C.ar    1  UNL1       -0.0000
     21 C         -12.2070  -16.5481   20.9838 C.ar    1  UNL1       -0.0003
     22 C         -11.4343  -17.5021   20.1220 C.ar    1  UNL1       -0.0043
@<TRIPOS>BOND
     1     8     9    2
     2     9    10   ar
     3    10    11   ar
     4     1    11    1
     5     1     2    1
     6     2     3    1
     7     3     4    1
     8     4     5    1
     9     5    15    1
    10    15    16    1
    11    16    17    1
    12    17    18   ar
    13    18    19   ar
    14    19    20   ar
    15    20    21   ar
    16    21    22   ar
    17     5     6    1
    18    11    12   ar
    19    12    13   ar
    20    13     9   ar
    21     6     1    1
    22    22    17   ar
    23     4     7    1
    24    13    14    1
@<TRIPOS>MOLECULE
*****
 22 24 0 0 0
SMALL
GASTEIGER

@<TRIPOS>ATOM
      1 C          -8.7348  -17.2860   22.0540 C.3     1  UNL1        0.0629
      2 C         -10.0936  -17.2790   21.4189 C.3     1  UNL1        0.0247
      3 C         -10.3974  -18.2156   20.2874 C.3     1  UNL1        0.0690
      4 N          -9.3423  -19.1592   19.7909 N.3     1  UNL1       -0.2985
      5 C          -7.9835  -19.1662   20.4260 C.3     1  UNL1        0.0548
      6 C          -7.6797  -18.2296   21.5576 C.3     1  UNL1        0.0234
      7 H          -9.2040  -18.9522   18.8018 H       1  UNL1        0.1232
      8 O          -8.4465  -15.1729   26.8844 O.2     1  UNL1       -0.2645
      9 C          -8.2984  -15.3782   25.4060 C.ar    1  UNL1        0.2884
     10 C          -8.7945  -16.5593   24.6257 C.ar    1  UNL1        0.0986
     11 C          -8.4309  -16.3494   23.1857 C.ar    1  UNL1        0.1547
     12 O          -7.7102  -15.0385   23.0759 O.2     1  UNL1       -0.3802
     13 N          -7.6283  -14.4382   24.4481 N.ar    1  UNL1       -0.1839
     14 H          -7.2084  -13.5783   24.6794 H       1  UNL1        0.2107
     15 C          -6.9284  -20.1098   19.9296 C.3     1  UNL1        0.0204
     16 C          -5.8271  -20.5530   20.8464 C.3     1  UNL1        0.0277
     17 C          -4.5409  -19.7830   20.9006 C.ar    1  UNL1       -0.0221
     18 C          -4.0190  -19.2864   22.2164 C.ar    1  UNL1       -0.0043
     19 C          -2.7328  -18.5164   22.2706 C.ar    1  UNL1       -0.0003
     20 C          -1.9686  -18.2430   21.0091 C.ar    1  UNL1       -0.0000
     21 C          -2.4906  -18.7395   19.6935 C.ar    1  UNL1       -0.0003
     22 C          -3.7767  -19.5095   19.6392 C.ar    1  UNL1       -0.0043
@<TRIPOS>BOND
     1     8     9    2
     2     9    10   ar
     3    10    11   ar
     4     1    11    1
     5     1     2    1
     6     2     3    1
     7     3     4    1
     8     4     5    1
     9     5    15    1
    10    15    16    1
    11    16    17    1
    12    17    18   ar
    13    18    19   ar
    14    19    20   ar
    15    20    21   ar
    16    21    22   ar
    17     5     6    1
    18    11    12   ar
    19    12    13   ar
    20    13     9   ar
    21     6     1    1
    22    22    17   ar
    23     4     7    1
    24    13    14    1
@<TRIPOS>MOLECULE
*****
 22 24 0 0 0
SMALL
GASTEIGER

@<TRIPOS>ATOM
      1 C          -4.7618  -18.9415   21.1072 C.3     1  UNL1        0.0629
      2 C          -5.1778  -20.1977   20.4009 C.3     1  UNL1        0.0247
      3 C          -6.5904  -20.6891   20.5142 C.3     1  UNL1        0.0690
      4 N          -7.5871  -19.9243   21.3338 N.3     1  UNL1       -0.2985
      5 C          -7.1712  -18.6681   22.0401 C.3     1  UNL1        0.0548
      6 C          -5.7585  -18.1767   21.9268 C.3     1  UNL1        0.0234
      7 H          -7.9325  -20.5639   22.0494 H       1  UNL1        0.1232
      8 O           0.3207  -18.5403   19.7330 O.2     1  UNL1       -0.2645
      9 C          -1.0130  -18.2656   20.3622 C.ar    1  UNL1        0.2884
     10 C          -2.2562  -19.0864   20.1874 C.ar    1  UNL1        0.0986
     11 C          -3.3491  -18.4500   20.9939 C.ar    1  UNL1        0.1547
     12 O          -2.7814  -17.2358   21.6672 O.2     1  UNL1       -0.3802
     13 N          -1.3376  -17.1218   21.2768 N.ar    1  UNL1       -0.1839
     14 H          -0.7127  -16.4196   21.5695 H       1  UNL1        0.2107
     15 C          -8.1679  -17.9034   22.8597 C.3     1  UNL1        0.0204
     16 C          -7.9432  -16.4486   23.1481 C.3     1  UNL1        0.0277
     17 C          -7.4916  -16.0153   24.5113 C.ar    1  UNL1       -0.0221
     18 C          -6.0677  -15.5983   24.7322 C.ar    1  UNL1       -0.0043
     19 C          -5.6160  -15.1650   26.0954 C.ar    1  UNL1       -0.0003
     20 C          -6.5883  -15.1486   27.2376 C.ar    1  UNL1       -0.0000
     21 C          -8.0121  -15.5656   27.0166 C.ar    1  UNL1       -0.0003
     22 C          -8.4637  -15.9989   25.6534 C.ar    1  UNL1       -0.0043
@<TRIPOS>BOND
     1     8     9    2
     2     9    10   ar
     3    10    11   ar
     4     1    11    1
     5     1     2    1
     6     2     3    1
     7     3     4    1
     8     4     5    1
     9     5    15    1
    10    15    16    1
    11    16    17    1
    12    17    18   ar
    13    18    19   ar
    14    19    20   ar
    15    20    21   ar
    16    21    22   ar
    17     5     6    1
    18    11    12   ar
    19    12    13   ar
    20    13     9   ar
    21     6     1    1
    22    22    17   ar
    23     4     7    1
    24    13    14    1
@<TRIPOS>MOLECULE
*****
 22 24 0 0 0
SMALL
GASTEIGER

@<TRIPOS>ATOM
      1 C          -5.6541  -17.0133   23.4843 C.3     1  UNL1        0.0629
      2 C          -4.8879  -16.0897   24.3841 C.3     1  UNL1        0.0247
      3 C          -5.6212  -15.1275   25.2709 C.3     1  UNL1        0.0690
      4 N          -7.1206  -15.0889   25.2579 N.3     1  UNL1       -0.2985
      5 C          -7.8868  -16.0126   24.3581 C.3     1  UNL1        0.0548
      6 C          -7.1536  -16.9748   23.4713 C.3     1  UNL1        0.0234
      7 H          -7.3885  -14.1387   25.0015 H       1  UNL1        0.1232
      8 O          -1.9408  -20.2329   21.5539 O.2     1  UNL1       -0.2645
      9 C          -3.2140  -19.4555   21.7102 C.ar    1  UNL1        0.2884
     10 C          -3.5539  -18.5398   22.8486 C.ar    1  UNL1        0.0986
     11 C          -4.9209  -17.9756   22.5975 C.ar    1  UNL1        0.1547
     12 O          -5.4259  -18.5427   21.3039 O.2     1  UNL1       -0.3802
     13 N          -4.3711  -19.4573   20.7555 N.ar    1  UNL1       -0.1839
     14 H          -4.4281  -19.9689   19.9163 H       1  UNL1        0.2107
     15 C          -9.3863  -15.9740   24.3450 C.3     1  UNL1        0.0204
     16 C         -10.1303  -16.1684   23.0572 C.3     1  UNL1        0.0277
     17 C         -10.4416  -17.5534   22.5725 C.ar    1  UNL1       -0.0221
     18 C         -10.4354  -18.7039   23.5351 C.ar    1  UNL1       -0.0043
     19 C         -10.7467  -20.0889   23.0504 C.ar    1  UNL1       -0.0003
     20 C         -11.0640  -20.3234   21.6032 C.ar    1  UNL1       -0.0000
     21 C         -11.0701  -19.1729   20.6407 C.ar    1  UNL1       -0.0003
     22 C         -10.7589  -17.7879   21.1254 C.ar    1  UNL1       -0.0043
@<TRIPOS>BOND
     1     8     9    2
     2     9    10   ar
     3    10    11   ar
     4     1    11    1
     5     1     2    1
     6     2     3    1
     7     3     4    1
     8     4     5    1
     9     5    15    1
    10    15    16    1
    11    16    17    1
    12    17    18   ar
    13    18    19   ar
    14    19    20   ar
    15    20    21   ar
    16    21    22   ar
    17     5     6    1
    18    11    12   ar
    19    12    13   ar
    20    13     9   ar
    21     6     1    1
    22    22    17   ar
    23     4     7    1
    24    13    14    1
@<TRIPOS>MOLECULE
*****
 22 24 0 0 0
SMALL
GASTEIGER

@<TRIPOS>ATOM
      1 C          -9.5689  -18.4085   23.0036 C.3     1  UNL1        0.0629
      2 C         -10.9656  -18.6141   22.4969 C.3     1  UNL1        0.0247
      3 C         -11.1904  -19.1574   21.1170 C.3     1  UNL1        0.0690
      4 N         -10.0185  -19.4949   20.2437 N.3     1  UNL1       -0.2985
      5 C          -8.6217  -19.2892   20.7503 C.3     1  UNL1        0.0548
      6 C          -8.3969  -18.7460   22.1303 C.3     1  UNL1        0.0234
      7 H         -10.1105  -18.9330   19.3974 H       1  UNL1        0.1232
      8 O          -8.2282  -15.2085   26.9840 O.2     1  UNL1       -0.2645
      9 C          -8.7277  -16.3943   26.2132 C.ar    1  UNL1        0.2884
     10 C          -8.7747  -16.5186   24.7191 C.ar    1  UNL1        0.0986
     11 C          -9.3440  -17.8652   24.3836 C.ar    1  UNL1        0.1547
     12 O          -9.6489  -18.5732   25.6704 O.2     1  UNL1       -0.3802
     13 N          -9.2681  -17.6642   26.8011 N.ar    1  UNL1       -0.1839
     14 H          -9.3571  -17.8656   27.7607 H       1  UNL1        0.2107
     15 C          -7.4498  -19.6267   19.8770 C.3     1  UNL1        0.0204
     16 C          -6.3297  -20.4659   20.4163 C.3     1  UNL1        0.0277
     17 C          -5.0269  -19.8252   20.7935 C.ar    1  UNL1       -0.0221
     18 C          -3.9587  -19.6319   19.7582 C.ar    1  UNL1       -0.0043
     19 C          -2.6559  -18.9911   20.1354 C.ar    1  UNL1       -0.0003
     20 C          -2.4213  -18.5438   21.5478 C.ar    1  UNL1       -0.0000
     21 C          -3.4895  -18.7372   22.5830 C.ar    1  UNL1       -0.0003
     22 C          -4.7923  -19.3779   22.2058 C.ar    1  UNL1       -0.0043
@<TRIPOS>BOND
     1     8     9    2
     2     9    10   ar
     3    10    11   ar
     4     1    11    1
     5     1     2    1
     6     2     3    1
     7     3     4    1
     8     4     5    1
     9     5    15    1
    10    15    16    1
    11    16    17    1
    12    17    18   ar
    13    18    19   ar
    14    19    20   ar
    15    20    21   ar
    16    21    22   ar
    17     5     6    1
    18    11    12   ar
    19    12    13   ar
    20    13     9   ar
    21     6     1    1
    22    22    17   ar
    23     4     7    1
    24    13    14    1
@<TRIPOS>MOLECULE
*****
 22 24 0 0 0
SMALL
GASTEIGER

@<TRIPOS>ATOM
      1 C          -3.9919  -19.3230   20.3863 C.3     1  UNL1        0.0629
      2 C          -4.4543  -20.6656   19.9030 C.3     1  UNL1        0.0247
      3 C          -5.7837  -21.2037   20.3423 C.3     1  UNL1        0.0690
      4 N          -6.6507  -20.3993   21.2649 N.3     1  UNL1       -0.2985
      5 C          -6.1883  -19.0567   21.7482 C.3     1  UNL1        0.0548
      6 C          -4.8589  -18.5186   21.3089 C.3     1  UNL1        0.0234
      7 H          -6.8094  -20.9720   22.0939 H       1  UNL1        0.1232
      8 O           1.0585  -17.7822   20.4106 O.2     1  UNL1       -0.2645
      9 C          -0.3410  -18.0766   19.9582 C.ar    1  UNL1        0.2884
     10 C          -1.4350  -18.6626   20.8006 C.ar    1  UNL1        0.0986
     11 C          -2.6624  -18.7848   19.9470 C.ar    1  UNL1        0.1547
     12 O          -2.3269  -18.2743   18.5770 O.2     1  UNL1       -0.3802
     13 N          -0.8922  -17.8366   18.5839 N.ar    1  UNL1       -0.1839
     14 H          -0.3990  -17.4582   17.8205 H       1  UNL1        0.2107
     15 C          -7.0553  -18.2523   22.6709 C.3     1  UNL1        0.0204
     16 C          -8.5158  -18.5706   22.7953 C.3     1  UNL1        0.0277
     17 C          -9.4968  -17.9834   21.8243 C.ar    1  UNL1       -0.0221
     18 C         -10.0016  -18.8078   20.6773 C.ar    1  UNL1       -0.0043
     19 C         -10.9826  -18.2206   19.7063 C.ar    1  UNL1       -0.0003
     20 C         -11.4588  -16.8091   19.8823 C.ar    1  UNL1       -0.0000
     21 C         -10.9539  -15.9848   21.0293 C.ar    1  UNL1       -0.0003
     22 C          -9.9729  -16.5720   22.0003 C.ar    1  UNL1       -0.0043
@<TRIPOS>BOND
     1     8     9    2
     2     9    10   ar
     3    10    11   ar
     4     1    11    1
     5     1     2    1
     6     2     3    1
     7     3     4    1
     8     4     5    1
     9     5    15    1
    10    15    16    1
    11    16    17    1
    12    17    18   ar
    13    18    19   ar
    14    19    20   ar
    15    20    21   ar
    16    21    22   ar
    17     5     6    1
    18    11    12   ar
    19    12    13   ar
    20    13     9   ar
    21     6     1    1
    22    22    17   ar
    23     4     7    1
    24    13    14    1
@<TRIPOS>MOLECULE
*****
 22 24 0 0 0
SMALL
GASTEIGER

@<TRIPOS>ATOM
      1 C         -15.7553   -6.1606   19.4244 C.3     1  UNL1        0.0629
      2 C         -17.0649   -5.4314   19.4807 C.3     1  UNL1        0.0247
      3 C         -17.0985   -3.9776   19.8486 C.3     1  UNL1        0.0690
      4 N         -15.8226   -3.2530   20.1600 N.3     1  UNL1       -0.2985
      5 C         -14.5130   -3.9822   20.1037 C.3     1  UNL1        0.0548
      6 C         -14.4794   -5.4360   19.7358 C.3     1  UNL1        0.0234
      7 H         -15.9154   -2.8873   21.1077 H       1  UNL1        0.1232
      8 O         -17.2132  -11.1701   18.6116 O.2     1  UNL1       -0.2645
      9 C         -16.3918   -9.9171   18.6829 C.ar    1  UNL1        0.2884
     10 C         -16.8700   -8.5748   19.1517 C.ar    1  UNL1        0.0986
     11 C         -15.7216   -7.6144   19.0565 C.ar    1  UNL1        0.1547
     12 O         -14.5337   -8.3631   18.5289 O.2     1  UNL1       -0.3802
     13 N         -14.9479   -9.7862   18.2980 N.ar    1  UNL1       -0.1839
     14 H         -14.3730  -10.5077   17.9543 H       1  UNL1        0.2107
     15 C         -13.2371   -3.2577   20.4151 C.3     1  UNL1        0.0204
     16 C         -12.4869   -2.5562   19.3220 C.3     1  UNL1        0.0277
     17 C         -11.3961   -3.2721   18.5820 C.ar    1  UNL1       -0.0221
     18 C         -10.7445   -2.6248   17.3960 C.ar    1  UNL1       -0.0043
     19 C          -9.6537   -3.3408   16.6560 C.ar    1  UNL1       -0.0003
     20 C          -9.2144   -4.7039   17.1021 C.ar    1  UNL1       -0.0000
     21 C          -9.8659   -5.3511   18.2881 C.ar    1  UNL1       -0.0003
     22 C         -10.9568   -4.6351   19.0281 C.ar    1  UNL1       -0.0043
@<TRIPOS>BOND
     1     8     9    2
     2     9    10   ar
     3    10    11   ar
     4     1    11    1
     5     1     2    1
     6     2     3    1
     7     3     4    1
     8     4     5    1
     9     5    15    1
    10    15    16    1
    11    16    17    1
    12    17    18   ar
    13    18    19   ar
    14    19    20   ar
    15    20    21   ar
    16    21    22   ar
    17     5     6    1
    18    11    12   ar
    19    12    13   ar
    20    13     9   ar
    21     6     1    1
    22    22    17   ar
    23     4     7    1
    24    13    14    1
@<TRIPOS>MOLECULE
*****
 22 24 0 0 0
SMALL
GASTEIGER

@<TRIPOS>ATOM
      1 C         -12.1385   -5.5609   18.9620 C.3     1  UNL1        0.0629
      2 C         -10.7111   -6.0217   18.9475 C.3     1  UNL1        0.0247
      3 C          -9.5986   -5.0159   18.9246 C.3     1  UNL1        0.0690
      4 N          -9.9133   -3.5494   18.9161 N.3     1  UNL1       -0.2985
      5 C         -11.3407   -3.0886   18.9306 C.3     1  UNL1        0.0548
      6 C         -12.4533   -4.0943   18.9536 C.3     1  UNL1        0.0234
      7 H          -9.4873   -3.1616   18.0744 H       1  UNL1        0.1232
      8 O         -14.9671   -9.9405   18.1254 O.2     1  UNL1       -0.2645
      9 C         -14.5513   -8.5798   18.6004 C.ar    1  UNL1        0.2884
     10 C         -13.2385   -7.9108   18.3191 C.ar    1  UNL1        0.0986
     11 C         -13.2511   -6.5667   18.9850 C.ar    1  UNL1        0.1547
     12 O         -14.5717   -6.4050   19.6777 O.2     1  UNL1       -0.3802
     13 N         -15.3752   -7.6491   19.4401 N.ar    1  UNL1       -0.1839
     14 H         -16.2839   -7.8241   19.7762 H       1  UNL1        0.2107
     15 C         -11.6555   -1.6220   18.9222 C.3     1  UNL1        0.0204
     16 C         -12.7520   -1.0953   18.0446 C.3     1  UNL1        0.0277
     17 C         -13.9671   -0.4657   18.6587 C.ar    1  UNL1       -0.0221
     18 C         -14.9592   -1.3142   19.3976 C.ar    1  UNL1       -0.0043
     19 C         -16.1743   -0.6845   20.0117 C.ar    1  UNL1       -0.0003
     20 C         -16.3972    0.7936   19.8869 C.ar    1  UNL1       -0.0000
     21 C         -15.4052    1.6420   19.1480 C.ar    1  UNL1       -0.0003
     22 C         -14.1901    1.0124   18.5339 C.ar    1  UNL1       -0.0043
@<TRIPOS>BOND
     1     8     9    2
     2     9    10   ar
     3    10    11   ar
     4     1    11    1
     5     1     2    1
     6     2     3    1
     7     3     4    1
     8     4     5    1
     9     5    15    1
    10    15    16    1
    11    16    17    1
    12    17    18   ar
    13    18    19   ar
    14    19    20   ar
    15    20    21   ar
    16    21    22   ar
    17     5     6    1
    18    11    12   ar
    19    12    13   ar
    20    13     9   ar
    21     6     1    1
    22    22    17   ar
    23     4     7    1
    24    13    14    1
