@<TRIPOS>MOLECULE
*****
 31 34 0 0 0
SMALL
GASTEIGER

@<TRIPOS>ATOM
      1 N          -8.0766  -19.2877   20.7573 N.am    1  UNL1       -0.2723
      2 C          -9.2453  -19.2790   19.8170 C.2     1  UNL1        0.2685
      3 O          -9.1940  -20.0792   18.5494 O.2     1  UNL1       -0.2682
      4 N          -8.2857  -16.0245   25.9263 N.3     1  UNL1       -0.2727
      5 C          -8.8703  -17.3906   25.7218 C.3     1  UNL1        0.0721
      6 C          -8.5868  -17.8096   24.3097 C.3     1  UNL1        0.0190
      7 C          -8.7728  -18.9129   23.3106 C.3     1  UNL1        0.0213
      8 C          -8.1279  -18.4875   22.0249 C.3     1  UNL1        0.0761
      9 C          -7.5433  -17.1214   22.2293 C.3     1  UNL1        0.0213
     10 C          -7.8268  -16.7024   23.6414 C.3     1  UNL1        0.0190
     11 C          -7.6408  -15.5991   24.6406 C.3     1  UNL1        0.0721
     12 C          -7.0667  -14.8666   27.9070 C.3     1  UNL1        0.0188
     13 C          -8.3370  -15.2242   27.1940 C.3     1  UNL1        0.0721
     14 C         -10.4653  -18.4699   20.1443 C.ar    1  UNL1        0.1535
     15 C         -11.5483  -18.8578   21.1068 C.ar    1  UNL1        0.1012
     16 N         -12.5687  -17.7586   21.1240 N.ar    1  UNL1       -0.3057
     17 C         -13.8216  -17.7314   21.9484 C.3     1  UNL1        0.1321
     18 C         -12.1164  -16.6913   20.1721 C.ar    1  UNL1        0.1787
     19 N         -10.8163  -17.1309   19.5666 N.ar    1  UNL1       -0.2192
     20 C          -6.8567  -20.0968   20.4299 C.3     1  UNL1        0.1204
     21 C          -5.4961  -19.5860   20.8011 C.ar    1  UNL1       -0.0022
     22 C          -5.0745  -19.5524   22.2403 C.ar    1  UNL1       -0.0003
     23 C          -3.7139  -19.0415   22.6115 C.ar    1  UNL1        0.0293
     24 C          -2.7749  -18.5643   21.5435 C.ar    1  UNL1        0.1440
     25 F          -1.4143  -18.0535   21.9147 F       1  UNL1       -0.2042
     26 C          -3.1965  -18.5979   20.1044 C.ar    1  UNL1        0.0985
     27 C          -4.5571  -19.1088   19.7332 C.ar    1  UNL1        0.0035
     28 C          -2.2575  -18.1207   19.0365 C.3     1  UNL1        0.4207
     29 F          -1.3184  -17.6435   17.9686 F       1  UNL1       -0.1658
     30 F          -3.3072  -17.1728   18.5370 F       1  UNL1       -0.1658
     31 F          -1.2077  -19.0686   19.5360 F       1  UNL1       -0.1658
@<TRIPOS>BOND
     1    12    13    1
     2    13     4    1
     3     4     5    1
     4     6     5    1
     5     6     7    1
     6     7     8    1
     7     8     1    1
     8     1    20    1
     9    20    21    1
    10    21    22   ar
    11    22    23   ar
    12    23    24   ar
    13    24    25    1
    14    24    26   ar
    15    26    28    1
    16    28    29    1
    17    28    30    1
    18    28    31    1
    19    26    27   ar
    20     1     2   am
    21     2     3    2
    22     2    14    1
    23    14    15   ar
    24    15    16   ar
    25    16    17    1
    26    16    18   ar
    27    18    19   ar
    28     8     9    1
    29    10     9    1
    30    10    11    1
    31    11     4    1
    32    10     6    1
    33    27    21   ar
    34    19    14   ar
@<TRIPOS>MOLECULE
*****
 31 34 0 0 0
SMALL
GASTEIGER

@<TRIPOS>ATOM
      1 N          -7.9629  -19.3039   20.9460 N.am    1  UNL1       -0.2723
      2 C          -9.1036  -19.3161   19.9719 C.2     1  UNL1        0.2685
      3 O          -9.0108  -20.1350   18.7186 O.2     1  UNL1       -0.2682
      4 N          -8.3412  -15.9649   26.0567 N.3     1  UNL1       -0.2727
      5 C          -7.6328  -15.5689   24.7952 C.3     1  UNL1        0.0721
      6 C          -7.7943  -16.6828   23.8036 C.3     1  UNL1        0.0190
      7 C          -7.4563  -17.1265   22.4112 C.3     1  UNL1        0.0213
      8 C          -8.0557  -18.4851   22.1993 C.3     1  UNL1        0.0761
      9 C          -8.7641  -18.8811   23.4607 C.3     1  UNL1        0.0213
     10 C          -8.6026  -17.7672   24.4523 C.3     1  UNL1        0.0190
     11 C          -8.9405  -17.3235   25.8447 C.3     1  UNL1        0.0721
     12 C          -7.1853  -14.6398   27.9693 C.3     1  UNL1        0.0188
     13 C          -8.4339  -15.1461   27.3100 C.3     1  UNL1        0.0721
     14 C         -10.3370  -18.5095   20.2512 C.ar    1  UNL1        0.1535
     15 C         -11.4509  -18.8944   21.1791 C.ar    1  UNL1        0.1012
     16 N         -12.4754  -17.7992   21.1530 N.ar    1  UNL1       -0.3057
     17 C         -13.7558  -17.7708   21.9339 C.3     1  UNL1        0.1321
     18 C         -11.9947  -16.7373   20.2090 C.ar    1  UNL1        0.1787
     19 N         -10.6731  -17.1762   19.6516 N.ar    1  UNL1       -0.2192
     20 C          -6.7296  -20.1106   20.6667 C.3     1  UNL1        0.1204
     21 C          -5.3955  -19.4318   20.5698 C.ar    1  UNL1       -0.0022
     22 C          -4.7988  -19.1390   19.2250 C.ar    1  UNL1       -0.0003
     23 C          -3.4647  -18.4603   19.1281 C.ar    1  UNL1        0.0293
     24 C          -2.7272  -18.0742   20.3761 C.ar    1  UNL1        0.1440
     25 F          -1.3931  -17.3954   20.2792 F       1  UNL1       -0.2042
     26 C          -3.3239  -18.3670   21.7207 C.ar    1  UNL1        0.0985
     27 C          -4.6580  -19.0457   21.8176 C.ar    1  UNL1        0.0035
     28 C          -2.5864  -17.9809   22.9686 C.3     1  UNL1        0.4207
     29 F          -1.8489  -17.5949   24.2164 F       1  UNL1       -0.1658
     30 F          -3.7202  -17.0800   23.3599 F       1  UNL1       -0.1658
     31 F          -1.4528  -18.8818   22.5773 F       1  UNL1       -0.1658
@<TRIPOS>BOND
     1    12    13    1
     2    13     4    1
     3     4     5    1
     4     6     5    1
     5     6     7    1
     6     7     8    1
     7     8     1    1
     8     1    20    1
     9    20    21    1
    10    21    22   ar
    11    22    23   ar
    12    23    24   ar
    13    24    25    1
    14    24    26   ar
    15    26    28    1
    16    28    29    1
    17    28    30    1
    18    28    31    1
    19    26    27   ar
    20     1     2   am
    21     2     3    2
    22     2    14    1
    23    14    15   ar
    24    15    16   ar
    25    16    17    1
    26    16    18   ar
    27    18    19   ar
    28     8     9    1
    29    10     9    1
    30    10    11    1
    31    11     4    1
    32    10     6    1
    33    27    21   ar
    34    19    14   ar
@<TRIPOS>MOLECULE
*****
 31 34 0 0 0
SMALL
GASTEIGER

@<TRIPOS>ATOM
      1 N          -6.5242  -16.8177   23.5365 N.am    1  UNL1       -0.2723
      2 C          -5.1453  -16.3179   23.8506 C.2     1  UNL1        0.2685
      3 O          -4.9505  -15.2646   24.9008 O.2     1  UNL1       -0.2682
      4 N          -7.3188  -21.1124   19.2545 N.3     1  UNL1       -0.2727
      5 C          -8.0952  -19.8349   19.3767 C.3     1  UNL1        0.0721
      6 C          -7.5696  -19.0847   20.5645 C.3     1  UNL1        0.0190
      7 C          -7.7246  -17.8315   21.3741 C.3     1  UNL1        0.0213
      8 C          -6.7191  -17.8709   22.4864 C.3     1  UNL1        0.0761
      9 C          -5.9426  -19.1484   22.3643 C.3     1  UNL1        0.0213
     10 C          -6.4682  -19.8986   21.1765 C.3     1  UNL1        0.0190
     11 C          -6.3132  -21.1518   20.3669 C.3     1  UNL1        0.0721
     12 C          -8.8313  -22.2855   17.4978 C.3     1  UNL1        0.0188
     13 C          -7.5136  -22.1657   18.2044 C.3     1  UNL1        0.0721
     14 C          -3.9612  -16.8713   23.1147 C.ar    1  UNL1        0.1535
     15 C          -3.2151  -16.1901   22.0060 C.ar    1  UNL1        0.1012
     16 N          -2.1081  -17.1008   21.5643 N.ar    1  UNL1       -0.3057
     17 C          -1.1137  -16.8172   20.4777 C.3     1  UNL1        0.1321
     18 C          -2.1700  -18.3448   22.4000 C.ar    1  UNL1        0.1787
     19 N          -3.3153  -18.2030   23.3583 N.ar    1  UNL1       -0.2192
     20 C          -7.7083  -16.2643   24.2725 C.3     1  UNL1        0.1204
     21 C          -9.0729  -16.8423   24.0403 C.ar    1  UNL1       -0.0022
     22 C          -9.5778  -17.9490   24.9180 C.ar    1  UNL1       -0.0003
     23 C         -10.9424  -18.5270   24.6858 C.ar    1  UNL1        0.0293
     24 C         -11.8020  -17.9983   23.5760 C.ar    1  UNL1        0.1440
     25 F         -13.1665  -18.5763   23.3439 F       1  UNL1       -0.2042
     26 C         -11.2970  -16.8916   22.6984 C.ar    1  UNL1        0.0985
     27 C          -9.9324  -16.3136   22.9305 C.ar    1  UNL1        0.0035
     28 C         -12.1565  -16.3630   21.5886 C.3     1  UNL1        0.4207
     29 F         -13.0161  -15.8343   20.4788 F       1  UNL1       -0.1658
     30 F         -12.9737  -15.5969   22.5864 F       1  UNL1       -0.1658
     31 F         -11.3395  -17.1290   20.5909 F       1  UNL1       -0.1658
@<TRIPOS>BOND
     1    12    13    1
     2    13     4    1
     3     4     5    1
     4     6     5    1
     5     6     7    1
     6     7     8    1
     7     8     1    1
     8     1    20    1
     9    20    21    1
    10    21    22   ar
    11    22    23   ar
    12    23    24   ar
    13    24    25    1
    14    24    26   ar
    15    26    28    1
    16    28    29    1
    17    28    30    1
    18    28    31    1
    19    26    27   ar
    20     1     2   am
    21     2     3    2
    22     2    14    1
    23    14    15   ar
    24    15    16   ar
    25    16    17    1
    26    16    18   ar
    27    18    19   ar
    28     8     9    1
    29    10     9    1
    30    10    11    1
    31    11     4    1
    32    10     6    1
    33    27    21   ar
    34    19    14   ar
@<TRIPOS>MOLECULE
*****
 31 34 0 0 0
SMALL
GASTEIGER

@<TRIPOS>ATOM
      1 N          -8.3160  -19.3446   20.3955 N.am    1  UNL1       -0.2723
      2 C          -7.3691  -20.0961   19.5076 C.2     1  UNL1        0.2685
      3 O          -7.9030  -20.9881   18.4262 O.2     1  UNL1       -0.2682
      4 N          -6.1390  -15.7072   24.8048 N.3     1  UNL1       -0.2727
      5 C          -7.3806  -15.4683   23.9977 C.3     1  UNL1        0.0721
      6 C          -7.5340  -16.6082   23.0348 C.3     1  UNL1        0.0190
      7 C          -8.3961  -17.1651   21.9409 C.3     1  UNL1        0.0213
      8 C          -7.7821  -18.4525   21.4768 C.3     1  UNL1        0.0761
      9 C          -6.5406  -18.6914   22.2839 C.3     1  UNL1        0.0213
     10 C          -6.3872  -17.5516   23.2468 C.3     1  UNL1        0.0190
     11 C          -5.5251  -16.9947   24.3407 C.3     1  UNL1        0.0721
     12 C          -6.2696  -14.7861   27.2306 C.3     1  UNL1        0.0188
     13 C          -5.6051  -14.8152   25.8861 C.3     1  UNL1        0.0721
     14 C          -5.8882  -19.9556   19.7009 C.ar    1  UNL1        0.1535
     15 C          -5.0588  -18.7644   19.3227 C.ar    1  UNL1        0.1012
     16 N          -3.6348  -19.0542   19.6944 N.ar    1  UNL1       -0.3057
     17 C          -2.4666  -18.1351   19.4935 C.3     1  UNL1        0.1321
     18 C          -3.5841  -20.4245   20.3023 C.ar    1  UNL1        0.1787
     19 N          -4.9768  -20.9817   20.3064 N.ar    1  UNL1       -0.2192
     20 C          -9.7968  -19.4851   20.2022 C.3     1  UNL1        0.1204
     21 C         -10.7348  -18.5217   20.8671 C.ar    1  UNL1       -0.0022
     22 C         -11.0497  -17.2090   20.2131 C.ar    1  UNL1       -0.0003
     23 C         -11.9876  -16.2457   20.8781 C.ar    1  UNL1        0.0293
     24 C         -12.6107  -16.5951   22.1971 C.ar    1  UNL1        0.1440
     25 F         -13.5487  -15.6317   22.8621 F       1  UNL1       -0.2042
     26 C         -12.2958  -17.9077   22.8511 C.ar    1  UNL1        0.0985
     27 C         -11.3579  -18.8711   22.1861 C.ar    1  UNL1        0.0035
     28 C         -12.9189  -18.2570   24.1700 C.3     1  UNL1        0.4207
     29 F         -13.5420  -18.6064   25.4891 F       1  UNL1       -0.1658
     30 F         -14.2808  -18.1886   23.5449 F       1  UNL1       -0.1658
     31 F         -11.5571  -18.3255   24.7952 F       1  UNL1       -0.1658
@<TRIPOS>BOND
     1    12    13    1
     2    13     4    1
     3     4     5    1
     4     6     5    1
     5     6     7    1
     6     7     8    1
     7     8     1    1
     8     1    20    1
     9    20    21    1
    10    21    22   ar
    11    22    23   ar
    12    23    24   ar
    13    24    25    1
    14    24    26   ar
    15    26    28    1
    16    28    29    1
    17    28    30    1
    18    28    31    1
    19    26    27   ar
    20     1     2   am
    21     2     3    2
    22     2    14    1
    23    14    15   ar
    24    15    16   ar
    25    16    17    1
    26    16    18   ar
    27    18    19   ar
    28     8     9    1
    29    10     9    1
    30    10    11    1
    31    11     4    1
    32    10     6    1
    33    27    21   ar
    34    19    14   ar
@<TRIPOS>MOLECULE
*****
 31 34 0 0 0
SMALL
GASTEIGER

@<TRIPOS>ATOM
      1 N           5.3380   -0.0032   34.9619 N.am    1  UNL1       -0.2723
      2 C           6.8134    0.1705   34.7547 C.2     1  UNL1        0.2685
      3 O           7.7540    0.0436   35.9162 O.2     1  UNL1       -0.2682
      4 N           1.5025    0.5143   30.2256 N.3     1  UNL1       -0.2727
      5 C           2.4253   -0.6380   30.4910 C.3     1  UNL1        0.0721
      6 C           3.1786   -0.3471   31.7551 C.3     1  UNL1        0.0190
      7 C           4.2145   -0.8795   32.7004 C.3     1  UNL1        0.0213
      8 C           4.3974    0.1237   33.8004 C.3     1  UNL1        0.0761
      9 C           3.4746    1.2760   33.5351 C.3     1  UNL1        0.0213
     10 C           2.7213    0.9851   32.2710 C.3     1  UNL1        0.0190
     11 C           1.6855    1.5174   31.3257 C.3     1  UNL1        0.0721
     12 C          -0.6383   -0.2535   28.9697 C.3     1  UNL1        0.0188
     13 C           0.5619    0.6412   29.0641 C.3     1  UNL1        0.0721
     14 C           7.3483    0.4713   33.3858 C.ar    1  UNL1        0.1535
     15 C           7.4869    1.8333   32.7731 C.ar    1  UNL1        0.1012
     16 N           8.0627    1.6666   31.3981 N.ar    1  UNL1       -0.3057
     17 C           8.3677    2.7710   30.4301 C.3     1  UNL1        0.1321
     18 C           8.2798    0.2015   31.1610 C.ar    1  UNL1        0.1787
     19 N           7.8383   -0.5374   32.3896 N.ar    1  UNL1       -0.2192
     20 C           4.8033   -0.3039   36.3307 C.3     1  UNL1        0.1204
     21 C           4.4205    0.8182   37.2496 C.ar    1  UNL1       -0.0022
     22 C           5.4768    1.7292   37.8013 C.ar    1  UNL1       -0.0003
     23 C           5.0941    2.8513   38.7202 C.ar    1  UNL1        0.0293
     24 C           3.6551    3.0624   39.0874 C.ar    1  UNL1        0.1440
     25 F           3.2723    4.1846   40.0062 F       1  UNL1       -0.2042
     26 C           2.5989    2.1514   38.5356 C.ar    1  UNL1        0.0985
     27 C           2.9816    1.0293   37.6167 C.ar    1  UNL1        0.0035
     28 C           1.1599    2.3626   38.9027 C.3     1  UNL1        0.4207
     29 F          -0.2791    2.5738   39.2699 F       1  UNL1       -0.1658
     30 F           1.2330    1.2056   39.8546 F       1  UNL1       -0.1658
     31 F           1.0868    3.5196   37.9509 F       1  UNL1       -0.1658
@<TRIPOS>BOND
     1    12    13    1
     2    13     4    1
     3     4     5    1
     4     6     5    1
     5     6     7    1
     6     7     8    1
     7     8     1    1
     8     1    20    1
     9    20    21    1
    10    21    22   ar
    11    22    23   ar
    12    23    24   ar
    13    24    25    1
    14    24    26   ar
    15    26    28    1
    16    28    29    1
    17    28    30    1
    18    28    31    1
    19    26    27   ar
    20     1     2   am
    21     2     3    2
    22     2    14    1
    23    14    15   ar
    24    15    16   ar
    25    16    17    1
    26    16    18   ar
    27    18    19   ar
    28     8     9    1
    29    10     9    1
    30    10    11    1
    31    11     4    1
    32    10     6    1
    33    27    21   ar
    34    19    14   ar
@<TRIPOS>MOLECULE
*****
 31 34 0 0 0
SMALL
GASTEIGER

@<TRIPOS>ATOM
      1 N           7.1480   -3.5081   22.6363 N.am    1  UNL1       -0.2723
      2 C           7.0141   -4.1423   21.2836 C.2     1  UNL1        0.2685
      3 O           7.9827   -5.2038   20.8536 O.2     1  UNL1       -0.2682
      4 N           3.1980    0.8204   24.3893 N.3     1  UNL1       -0.2727
      5 C           3.0198   -0.6588   24.5637 C.3     1  UNL1        0.0721
      6 C           4.2266   -1.3417   23.9917 C.3     1  UNL1        0.0190
      7 C           4.8624   -2.6779   23.7459 C.3     1  UNL1        0.0213
      8 C           6.1793   -2.4466   23.0662 C.3     1  UNL1        0.0761
      9 C           6.3575   -0.9676   22.8918 C.3     1  UNL1        0.0213
     10 C           5.1507   -0.2846   23.4638 C.3     1  UNL1        0.0190
     11 C           4.5149    1.0516   23.7095 C.3     1  UNL1        0.0721
     12 C           0.7532    1.6283   24.7363 C.3     1  UNL1        0.0188
     13 C           2.2293    1.8819   24.8192 C.3     1  UNL1        0.0721
     14 C           5.9114   -3.7150   20.3607 C.ar    1  UNL1        0.1535
     15 C           5.9615   -2.5632   19.4011 C.ar    1  UNL1        0.1012
     16 N           4.6462   -2.5008   18.6828 N.ar    1  UNL1       -0.3057
     17 C           4.2614   -1.5007   17.6331 C.3     1  UNL1        0.1321
     18 C           3.7831   -3.6140   19.1984 C.ar    1  UNL1        0.1787
     19 N           4.5651   -4.3645   20.2355 N.ar    1  UNL1       -0.2192
     20 C           8.2506   -3.9355   23.5590 C.3     1  UNL1        0.1204
     21 C           8.0535   -5.1114   24.4691 C.ar    1  UNL1       -0.0022
     22 C           8.3075   -6.5011   23.9647 C.ar    1  UNL1       -0.0003
     23 C           8.1104   -7.6770   24.8748 C.ar    1  UNL1        0.0293
     24 C           7.6592   -7.4633   26.2894 C.ar    1  UNL1        0.1440
     25 F           7.4621   -8.6392   27.1995 F       1  UNL1       -0.2042
     26 C           7.4052   -6.0737   26.7937 C.ar    1  UNL1        0.0985
     27 C           7.6024   -4.8977   25.8836 C.ar    1  UNL1        0.0035
     28 C           6.9541   -5.8600   28.2082 C.3     1  UNL1        0.4207
     29 F           6.5030   -5.6464   29.6228 F       1  UNL1       -0.1658
     30 F           5.5366   -5.7266   27.7360 F       1  UNL1       -0.1658
     31 F           8.3716   -5.9934   28.6804 F       1  UNL1       -0.1658
@<TRIPOS>BOND
     1    12    13    1
     2    13     4    1
     3     4     5    1
     4     6     5    1
     5     6     7    1
     6     7     8    1
     7     8     1    1
     8     1    20    1
     9    20    21    1
    10    21    22   ar
    11    22    23   ar
    12    23    24   ar
    13    24    25    1
    14    24    26   ar
    15    26    28    1
    16    28    29    1
    17    28    30    1
    18    28    31    1
    19    26    27   ar
    20     1     2   am
    21     2     3    2
    22     2    14    1
    23    14    15   ar
    24    15    16   ar
    25    16    17    1
    26    16    18   ar
    27    18    19   ar
    28     8     9    1
    29    10     9    1
    30    10    11    1
    31    11     4    1
    32    10     6    1
    33    27    21   ar
    34    19    14   ar
@<TRIPOS>MOLECULE
*****
 31 34 0 0 0
SMALL
GASTEIGER

@<TRIPOS>ATOM
      1 N           7.9956   -4.3095   22.9837 N.am    1  UNL1       -0.2723
      2 C           8.5462   -5.3601   23.9019 C.2     1  UNL1        0.2685
      3 O           9.4607   -6.4209   23.3650 O.2     1  UNL1       -0.2682
      4 N           4.2666    0.0163   25.1729 N.3     1  UNL1       -0.2727
      5 C           5.7458    0.1507   24.9636 C.3     1  UNL1        0.0721
      6 C           6.2559   -1.1478   24.4124 C.3     1  UNL1        0.0190
      7 C           7.4853   -1.8672   23.9424 C.3     1  UNL1        0.0213
      8 C           7.0811   -3.2487   23.5206 C.3     1  UNL1        0.0761
      9 C           5.6020   -3.3832   23.7298 C.3     1  UNL1        0.0213
     10 C           5.0919   -2.0847   24.2810 C.3     1  UNL1        0.0190
     11 C           3.8624   -1.3653   24.7511 C.3     1  UNL1        0.0721
     12 C           1.8768    0.9968   25.4510 C.3     1  UNL1        0.0188
     13 C           3.3521    1.0772   25.7098 C.3     1  UNL1        0.0721
     14 C           8.1823   -5.3498   25.3571 C.ar    1  UNL1        0.1535
     15 C           8.9707   -4.7055   26.4585 C.ar    1  UNL1        0.1012
     16 N           8.2419   -4.9394   27.7485 N.ar    1  UNL1       -0.3057
     17 C           8.6757   -4.4674   29.1045 C.3     1  UNL1        0.1321
     18 C           7.0029   -5.7283   27.4443 C.ar    1  UNL1        0.1787
     19 N           6.9661   -5.9820   25.9663 N.ar    1  UNL1       -0.2192
     20 C           8.3595   -4.3199   21.5286 C.3     1  UNL1        0.1204
     21 C           7.4543   -3.6700   20.5244 C.ar    1  UNL1       -0.0022
     22 C           7.9212   -2.4647   19.7632 C.ar    1  UNL1       -0.0003
     23 C           7.0161   -1.8149   18.7591 C.ar    1  UNL1        0.0293
     24 C           5.6439   -2.3703   18.5162 C.ar    1  UNL1        0.1440
     25 F           4.7388   -1.7204   17.5120 F       1  UNL1       -0.2042
     26 C           5.1771   -3.5755   19.2774 C.ar    1  UNL1        0.0985
     27 C           6.0823   -4.2254   20.2815 C.ar    1  UNL1        0.0035
     28 C           3.8051   -4.1308   19.0344 C.3     1  UNL1        0.4207
     29 F           2.4329   -4.6862   18.7915 F       1  UNL1       -0.1658
     30 F           4.4079   -5.3177   18.3428 F       1  UNL1       -0.1658
     31 F           3.2023   -2.9441   19.7260 F       1  UNL1       -0.1658
@<TRIPOS>BOND
     1    12    13    1
     2    13     4    1
     3     4     5    1
     4     6     5    1
     5     6     7    1
     6     7     8    1
     7     8     1    1
     8     1    20    1
     9    20    21    1
    10    21    22   ar
    11    22    23   ar
    12    23    24   ar
    13    24    25    1
    14    24    26   ar
    15    26    28    1
    16    28    29    1
    17    28    30    1
    18    28    31    1
    19    26    27   ar
    20     1     2   am
    21     2     3    2
    22     2    14    1
    23    14    15   ar
    24    15    16   ar
    25    16    17    1
    26    16    18   ar
    27    18    19   ar
    28     8     9    1
    29    10     9    1
    30    10    11    1
    31    11     4    1
    32    10     6    1
    33    27    21   ar
    34    19    14   ar
@<TRIPOS>MOLECULE
*****
 31 34 0 0 0
SMALL
GASTEIGER

@<TRIPOS>ATOM
      1 N           1.7506    0.9364   19.9053 N.am    1  UNL1       -0.2723
      2 C           0.7253    2.0311   19.9169 C.2     1  UNL1        0.2685
      3 O          -0.6263    1.7865   20.5196 O.2     1  UNL1       -0.2682
      4 N           7.2622    1.9339   17.4478 N.3     1  UNL1       -0.2727
      5 C           6.8082    2.3813   18.8056 C.3     1  UNL1        0.0721
      6 C           5.3926    1.9228   18.9955 C.3     1  UNL1        0.0190
      7 C           4.2372    1.9159   19.9520 C.3     1  UNL1        0.0213
      8 C           3.1023    1.1810   19.3026 C.3     1  UNL1        0.0761
      9 C           3.5562    0.7336   17.9448 C.3     1  UNL1        0.0213
     10 C           4.9717    1.1921   17.7549 C.3     1  UNL1        0.0190
     11 C           6.1272    1.1989   16.7984 C.3     1  UNL1        0.0721
     12 C           9.0458    3.5764   16.5146 C.3     1  UNL1        0.0188
     13 C           8.6138    2.1785   16.8451 C.3     1  UNL1        0.0721
     14 C           1.0517    3.3706   19.3258 C.ar    1  UNL1        0.1535
     15 C           0.7909    3.7975   17.9117 C.ar    1  UNL1        0.1012
     16 N           1.2741    5.2090   17.7570 N.ar    1  UNL1       -0.3057
     17 C           1.2092    6.0307   16.5038 C.3     1  UNL1        0.1321
     18 C           1.8335    5.6546   19.0754 C.ar    1  UNL1        0.1787
     19 N           1.6961    4.5184   20.0451 N.ar    1  UNL1       -0.2192
     20 C           1.4243   -0.4031   20.4964 C.3     1  UNL1        0.1204
     21 C           2.5267   -1.3623   20.8347 C.ar    1  UNL1       -0.0022
     22 C           3.2217   -1.2687   22.1608 C.ar    1  UNL1       -0.0003
     23 C           4.3241   -2.2280   22.4991 C.ar    1  UNL1        0.0293
     24 C           4.7317   -3.2808   21.5113 C.ar    1  UNL1        0.1440
     25 F           5.8341   -4.2400   21.8496 F       1  UNL1       -0.2042
     26 C           4.0367   -3.3743   20.1853 C.ar    1  UNL1        0.0985
     27 C           2.9343   -2.4151   19.8470 C.ar    1  UNL1        0.0035
     28 C           4.4443   -4.4271   19.1976 C.3     1  UNL1        0.4207
     29 F           4.8519   -5.4798   18.2099 F       1  UNL1       -0.1658
     30 F           3.4153   -5.3588   19.7661 F       1  UNL1       -0.1658
     31 F           5.4732   -3.4954   18.6292 F       1  UNL1       -0.1658
@<TRIPOS>BOND
     1    12    13    1
     2    13     4    1
     3     4     5    1
     4     6     5    1
     5     6     7    1
     6     7     8    1
     7     8     1    1
     8     1    20    1
     9    20    21    1
    10    21    22   ar
    11    22    23   ar
    12    23    24   ar
    13    24    25    1
    14    24    26   ar
    15    26    28    1
    16    28    29    1
    17    28    30    1
    18    28    31    1
    19    26    27   ar
    20     1     2   am
    21     2     3    2
    22     2    14    1
    23    14    15   ar
    24    15    16   ar
    25    16    17    1
    26    16    18   ar
    27    18    19   ar
    28     8     9    1
    29    10     9    1
    30    10    11    1
    31    11     4    1
    32    10     6    1
    33    27    21   ar
    34    19    14   ar
@<TRIPOS>MOLECULE
*****
 31 34 0 0 0
SMALL
GASTEIGER

@<TRIPOS>ATOM
      1 N         -16.7154   -4.3370   19.4597 N.am    1  UNL1       -0.2723
      2 C         -17.4309   -3.0266   19.3157 C.2     1  UNL1        0.2685
      3 O         -18.8541   -2.8951   19.7711 O.2     1  UNL1       -0.2682
      4 N         -10.9124   -4.8734   17.6028 N.3     1  UNL1       -0.2727
      5 C         -11.3657   -4.4333   18.9632 C.3     1  UNL1        0.0721
      6 C         -12.8655   -4.4468   18.9789 C.3     1  UNL1        0.0190
      7 C         -14.0727   -4.1831   19.8294 C.3     1  UNL1        0.0213
      8 C         -15.2923   -4.4686   19.0043 C.3     1  UNL1        0.0761
      9 C         -14.8391   -4.9086   17.6439 C.3     1  UNL1        0.0213
     10 C         -13.3392   -4.8952   17.6282 C.3     1  UNL1        0.0190
     11 C         -12.1321   -5.1588   16.7777 C.3     1  UNL1        0.0721
     12 C          -8.8618   -3.9192   16.3242 C.3     1  UNL1        0.0188
     13 C          -9.4892   -5.0049   17.1474 C.3     1  UNL1        0.0721
     14 C         -16.7233   -1.8476   18.7162 C.ar    1  UNL1        0.1535
     15 C         -15.9152   -0.8300   19.4654 C.ar    1  UNL1        0.1012
     16 N         -15.3920    0.1672   18.4746 N.ar    1  UNL1       -0.3057
     17 C         -14.5346    1.3569   18.7900 C.3     1  UNL1        0.1321
     18 C         -15.8767   -0.2340   17.1130 C.ar    1  UNL1        0.1787
     19 N         -16.6996   -1.4794   17.2623 N.ar    1  UNL1       -0.2192
     20 C         -17.4231   -5.5160   20.0591 C.3     1  UNL1        0.1204
     21 C         -17.7778   -6.6938   19.2007 C.ar    1  UNL1       -0.0022
     22 C         -19.0902   -6.7247   18.4749 C.ar    1  UNL1       -0.0003
     23 C         -19.4450   -7.9025   17.6164 C.ar    1  UNL1        0.0293
     24 C         -18.4873   -9.0494   17.4838 C.ar    1  UNL1        0.1440
     25 F         -18.8420  -10.2272   16.6254 F       1  UNL1       -0.2042
     26 C         -17.1750   -9.0185   18.2096 C.ar    1  UNL1        0.0985
     27 C         -16.8202   -7.8407   19.0680 C.ar    1  UNL1        0.0035
     28 C         -16.2174  -10.1654   18.0770 C.3     1  UNL1        0.4207
     29 F         -15.2598  -11.3124   17.9443 F       1  UNL1       -0.1658
     30 F         -15.2592   -9.2798   17.3368 F       1  UNL1       -0.1658
     31 F         -17.1755  -11.0509   18.8170 F       1  UNL1       -0.1658
@<TRIPOS>BOND
     1    12    13    1
     2    13     4    1
     3     4     5    1
     4     6     5    1
     5     6     7    1
     6     7     8    1
     7     8     1    1
     8     1    20    1
     9    20    21    1
    10    21    22   ar
    11    22    23   ar
    12    23    24   ar
    13    24    25    1
    14    24    26   ar
    15    26    28    1
    16    28    29    1
    17    28    30    1
    18    28    31    1
    19    26    27   ar
    20     1     2   am
    21     2     3    2
    22     2    14    1
    23    14    15   ar
    24    15    16   ar
    25    16    17    1
    26    16    18   ar
    27    18    19   ar
    28     8     9    1
    29    10     9    1
    30    10    11    1
    31    11     4    1
    32    10     6    1
    33    27    21   ar
    34    19    14   ar
