@<TRIPOS>MOLECULE
*****
 37 42 0 0 0
SMALL
GASTEIGER

@<TRIPOS>ATOM
      1 C          -7.2141  -20.5519   21.5993 C.3     1  UNL1        0.0886
      2 C          -5.8930  -19.9945   21.1589 C.3     1  UNL1        0.0749
      3 C          -5.1959  -18.9653   21.9984 C.3     1  UNL1        0.0444
      4 C          -3.8748  -18.4079   21.5580 C.ar    1  UNL1       -0.0101
      5 C          -3.2508  -18.8796   20.2781 C.ar    1  UNL1       -0.0091
      6 C          -1.9297  -18.3222   19.8377 C.ar    1  UNL1       -0.0032
      7 C          -1.2325  -17.2930   20.6772 C.ar    1  UNL1        0.0010
      8 C          -1.8565  -16.8212   21.9571 C.ar    1  UNL1        0.0142
      9 C          -3.1777  -17.3787   22.3975 C.ar    1  UNL1        0.0436
     10 C          -3.9479  -19.9088   19.4386 C.3     1  UNL1        0.0954
     11 N          -5.2691  -20.4662   19.8790 N.3     1  UNL1       -0.2934
     12 H          -5.1490  -21.4755   19.9645 H       1  UNL1        0.1236
     13 N          -3.8016  -16.9069   23.6774 N.pl3   1  UNL1       -0.3049
     14 C          -4.6136  -15.6458   23.6957 C.3     1  UNL1        0.1079
     15 C          -5.2376  -15.1740   24.9756 C.3     1  UNL1        0.0903
     16 N          -5.0495  -15.9634   26.2372 N.3     1  UNL1       -0.2946
     17 C          -4.2376  -17.2245   26.2189 C.3     1  UNL1        0.0903
     18 C          -3.6136  -17.6962   24.9390 C.3     1  UNL1        0.1079
     19 H          -5.9807  -16.2175   26.5671 H       1  UNL1        0.1233
     20 N          -8.4158  -19.6577   21.6810 N.3     1  UNL1       -0.2679
     21 C          -8.2573  -14.7669   23.9842 C.ar    1  UNL1        0.0203
     22 C          -7.8127  -15.3064   22.6571 C.ar    1  UNL1        0.0985
     23 N          -8.0137  -16.7569   22.3317 N.ar    1  UNL1       -0.2471
     24 C          -8.6593  -17.6678   23.3335 C.ar    1  UNL1        0.0695
     25 C          -9.1038  -17.1282   24.6606 C.ar    1  UNL1       -0.0073
     26 C          -8.9028  -15.6778   24.9859 C.ar    1  UNL1       -0.0015
     27 C          -9.7494  -18.0391   25.6624 C.3     1  UNL1        0.0277
     28 C          -9.9504  -19.4895   25.3370 C.3     1  UNL1        0.0065
     29 C          -9.5058  -20.0291   24.0099 C.3     1  UNL1        0.0224
     30 C          -8.8603  -19.1182   23.0081 C.3     1  UNL1        0.0978
     31 C          -9.1728  -19.3032   20.4356 C.3     1  UNL1        0.0724
     32 C         -10.3646  -18.3958   20.5150 C.3     1  UNL1        0.0160
     33 C         -10.3716  -17.0991   19.7611 C.3     1  UNL1        0.0014
     34 C         -11.5634  -16.1917   19.8406 C.3     1  UNL1        0.0000
     35 C         -12.7483  -16.5812   20.6740 C.3     1  UNL1        0.0000
     36 C         -12.7413  -17.8779   21.4279 C.3     1  UNL1        0.0000
     37 C         -11.5494  -18.7853   21.3484 C.3     1  UNL1        0.0014
@<TRIPOS>BOND
     1    21    22   ar
     2    22    23   ar
     3    23    24   ar
     4    24    25   ar
     5    25    26   ar
     6    25    27    1
     7    27    28    1
     8    28    29    1
     9    29    30    1
    10    30    20    1
    11    20    31    1
    12    31    32    1
    13    32    33    1
    14    33    34    1
    15    34    35    1
    16    35    36    1
    17    36    37    1
    18    20     1    1
    19     2     1    1
    20     2     3    1
    21     3     4    1
    22     4     5   ar
    23     5     6   ar
    24     6     7   ar
    25     7     8   ar
    26     8     9   ar
    27     9    13    1
    28    13    14    1
    29    14    15    1
    30    15    16    1
    31    16    17    1
    32    17    18    1
    33     5    10    1
    34    10    11    1
    35    26    21   ar
    36    37    32    1
    37    11     2    1
    38    30    24    1
    39     9     4   ar
    40    18    13    1
    41    16    19    1
    42    11    12    1
@<TRIPOS>MOLECULE
*****
 37 42 0 0 0
SMALL
GASTEIGER

@<TRIPOS>ATOM
      1 C          -8.9456  -16.7371   21.1005 C.3     1  UNL1        0.0886
      2 C          -8.3419  -16.2934   22.3999 C.3     1  UNL1        0.0749
      3 C          -6.8965  -16.5712   22.6891 C.3     1  UNL1        0.0444
      4 C          -6.2928  -16.1275   23.9885 C.ar    1  UNL1       -0.0101
      5 C          -7.1345  -15.4059   24.9989 C.ar    1  UNL1       -0.0091
      6 C          -6.5308  -14.9621   26.2984 C.ar    1  UNL1       -0.0032
      7 C          -5.0853  -15.2400   26.5875 C.ar    1  UNL1        0.0010
      8 C          -4.2436  -15.9616   25.5771 C.ar    1  UNL1        0.0142
      9 C          -4.8474  -16.4053   24.2776 C.ar    1  UNL1        0.0436
     10 C          -8.5799  -15.1280   24.7098 C.3     1  UNL1        0.0954
     11 N          -9.1836  -15.5718   23.4103 N.3     1  UNL1       -0.2934
     12 H          -9.5420  -14.7345   22.9510 H       1  UNL1        0.1236
     13 N          -4.0057  -17.1269   23.2672 N.pl3   1  UNL1       -0.3049
     14 C          -2.9750  -16.3767   22.4767 C.3     1  UNL1        0.1079
     15 C          -2.1332  -17.0983   21.4663 C.3     1  UNL1        0.0903
     16 N          -2.3223  -18.5700   21.2465 N.3     1  UNL1       -0.2946
     17 C          -3.3530  -19.3201   22.0370 C.3     1  UNL1        0.0903
     18 C          -4.1947  -18.5986   23.0474 C.3     1  UNL1        0.1079
     19 H          -1.4241  -19.0141   21.4376 H       1  UNL1        0.1233
     20 N          -9.6039  -18.0812   20.9995 N.3     1  UNL1       -0.2679
     21 C         -13.8601  -17.9120   24.3320 C.ar    1  UNL1        0.0203
     22 C         -13.4841  -17.1656   23.0865 C.ar    1  UNL1        0.0985
     23 N         -12.1907  -17.4708   22.3908 N.ar    1  UNL1       -0.2471
     24 C         -11.2733  -18.5224   22.9407 C.ar    1  UNL1        0.0695
     25 C         -11.6493  -19.2688   24.1862 C.ar    1  UNL1       -0.0073
     26 C         -12.9428  -18.9636   24.8819 C.ar    1  UNL1       -0.0015
     27 C         -10.7319  -20.3205   24.7362 C.3     1  UNL1        0.0277
     28 C          -9.4385  -20.6258   24.0406 C.3     1  UNL1        0.0065
     29 C          -9.0625  -19.8793   22.7949 C.3     1  UNL1        0.0224
     30 C          -9.9799  -18.8276   22.2451 C.3     1  UNL1        0.0978
     31 C          -9.8861  -18.6788   19.6530 C.3     1  UNL1        0.0724
     32 C          -9.0759  -19.8428   19.1643 C.3     1  UNL1        0.0160
     33 C          -9.6410  -20.7671   18.1268 C.3     1  UNL1        0.0014
     34 C          -8.8309  -21.9310   17.6381 C.3     1  UNL1        0.0000
     35 C          -7.4556  -22.1708   18.1870 C.3     1  UNL1        0.0000
     36 C          -6.8905  -21.2465   19.2245 C.3     1  UNL1        0.0000
     37 C          -7.7007  -20.0825   19.7131 C.3     1  UNL1        0.0014
@<TRIPOS>BOND
     1    21    22   ar
     2    22    23   ar
     3    23    24   ar
     4    24    25   ar
     5    25    26   ar
     6    25    27    1
     7    27    28    1
     8    28    29    1
     9    29    30    1
    10    30    20    1
    11    20    31    1
    12    31    32    1
    13    32    33    1
    14    33    34    1
    15    34    35    1
    16    35    36    1
    17    36    37    1
    18    20     1    1
    19     2     1    1
    20     2     3    1
    21     3     4    1
    22     4     5   ar
    23     5     6   ar
    24     6     7   ar
    25     7     8   ar
    26     8     9   ar
    27     9    13    1
    28    13    14    1
    29    14    15    1
    30    15    16    1
    31    16    17    1
    32    17    18    1
    33     5    10    1
    34    10    11    1
    35    26    21   ar
    36    37    32    1
    37    11     2    1
    38    30    24    1
    39     9     4   ar
    40    18    13    1
    41    16    19    1
    42    11    12    1
@<TRIPOS>MOLECULE
*****
 37 42 0 0 0
SMALL
GASTEIGER

@<TRIPOS>ATOM
      1 C          -9.0801  -16.8212   21.1756 C.3     1  UNL1        0.0886
      2 C          -8.6248  -16.3791   22.5347 C.3     1  UNL1        0.0749
      3 C          -7.1712  -16.4493   22.8984 C.3     1  UNL1        0.0444
      4 C          -6.7159  -16.0072   24.2575 C.ar    1  UNL1       -0.0101
      5 C          -7.7141  -15.4949   25.2530 C.ar    1  UNL1       -0.0091
      6 C          -7.2588  -15.0528   26.6121 C.ar    1  UNL1       -0.0032
      7 C          -5.8052  -15.1230   26.9758 C.ar    1  UNL1        0.0010
      8 C          -4.8070  -15.6353   25.9803 C.ar    1  UNL1        0.0142
      9 C          -5.2623  -16.0774   24.6211 C.ar    1  UNL1        0.0436
     10 C          -9.1676  -15.4246   24.8894 C.3     1  UNL1        0.0954
     11 N          -9.6230  -15.8667   23.5302 N.3     1  UNL1       -0.2934
     12 H         -10.0842  -15.0656   23.0992 H       1  UNL1        0.1236
     13 N          -4.2641  -16.5898   23.6256 N.pl3   1  UNL1       -0.3049
     14 C          -3.4764  -15.6255   22.7890 C.3     1  UNL1        0.1079
     15 C          -2.4782  -16.1378   21.7935 C.3     1  UNL1        0.0903
     16 N          -2.2676  -17.6145   21.6346 N.3     1  UNL1       -0.2946
     17 C          -3.0553  -18.5787   22.4711 C.3     1  UNL1        0.0903
     18 C          -4.0535  -18.0664   23.4666 C.3     1  UNL1        0.1079
     19 H          -1.2823  -17.7939   21.8276 H       1  UNL1        0.1233
     20 N          -9.4516  -18.2551   20.9387 N.3     1  UNL1       -0.2679
     21 C          -8.6779  -21.9852   17.0998 C.ar    1  UNL1        0.0203
     22 C          -9.7477  -20.9663   17.3594 C.ar    1  UNL1        0.0985
     23 N          -9.6490  -20.0626   18.5525 N.ar    1  UNL1       -0.2471
     24 C          -8.4805  -20.1777   19.4860 C.ar    1  UNL1        0.0695
     25 C          -7.4107  -21.1965   19.2263 C.ar    1  UNL1       -0.0073
     26 C          -7.5094  -22.1003   18.0332 C.ar    1  UNL1       -0.0015
     27 C          -6.2422  -21.3117   20.1598 C.3     1  UNL1        0.0277
     28 C          -6.1435  -20.4079   21.3529 C.3     1  UNL1        0.0065
     29 C          -7.2133  -19.3890   21.6125 C.3     1  UNL1        0.0224
     30 C          -8.3818  -19.2739   20.6791 C.3     1  UNL1        0.0978
     31 C         -10.8929  -18.6700   20.9615 C.3     1  UNL1        0.0724
     32 C         -11.6760  -18.5908   22.2383 C.3     1  UNL1        0.0160
     33 C         -13.0177  -17.9203   22.2549 C.3     1  UNL1        0.0014
     34 C         -13.8009  -17.8411   23.5317 C.3     1  UNL1        0.0000
     35 C         -13.2424  -18.4324   24.7921 C.3     1  UNL1        0.0000
     36 C         -11.9007  -19.1028   24.7756 C.3     1  UNL1        0.0000
     37 C         -11.1175  -19.1820   23.4986 C.3     1  UNL1        0.0014
@<TRIPOS>BOND
     1    21    22   ar
     2    22    23   ar
     3    23    24   ar
     4    24    25   ar
     5    25    26   ar
     6    25    27    1
     7    27    28    1
     8    28    29    1
     9    29    30    1
    10    30    20    1
    11    20    31    1
    12    31    32    1
    13    32    33    1
    14    33    34    1
    15    34    35    1
    16    35    36    1
    17    36    37    1
    18    20     1    1
    19     2     1    1
    20     2     3    1
    21     3     4    1
    22     4     5   ar
    23     5     6   ar
    24     6     7   ar
    25     7     8   ar
    26     8     9   ar
    27     9    13    1
    28    13    14    1
    29    14    15    1
    30    15    16    1
    31    16    17    1
    32    17    18    1
    33     5    10    1
    34    10    11    1
    35    26    21   ar
    36    37    32    1
    37    11     2    1
    38    30    24    1
    39     9     4   ar
    40    18    13    1
    41    16    19    1
    42    11    12    1
@<TRIPOS>MOLECULE
*****
 37 42 0 0 0
SMALL
GASTEIGER

@<TRIPOS>ATOM
      1 C          -8.9956  -16.5781   20.9478 C.3     1  UNL1        0.0886
      2 C          -8.7346  -16.2548   22.3891 C.3     1  UNL1        0.0749
      3 C          -7.3331  -16.2868   22.9230 C.3     1  UNL1        0.0444
      4 C          -7.0721  -15.9636   24.3643 C.ar    1  UNL1       -0.0101
      5 C          -8.2124  -15.6083   25.2717 C.ar    1  UNL1       -0.0091
      6 C          -7.9514  -15.2851   26.7130 C.ar    1  UNL1       -0.0032
      7 C          -6.5500  -15.3171   27.2470 C.ar    1  UNL1        0.0010
      8 C          -5.4096  -15.6723   26.3395 C.ar    1  UNL1        0.0142
      9 C          -5.6707  -15.9956   24.8982 C.ar    1  UNL1        0.0436
     10 C          -9.6138  -15.5764   24.7379 C.3     1  UNL1        0.0954
     11 N          -9.8749  -15.8996   23.2965 N.3     1  UNL1       -0.2934
     12 H         -10.3317  -15.0833   22.8898 H       1  UNL1        0.1236
     13 N          -4.5304  -16.3508   23.9908 N.pl3   1  UNL1       -0.3049
     14 C          -4.0416  -15.3591   22.9769 C.3     1  UNL1        0.1079
     15 C          -2.9013  -15.7143   22.0695 C.3     1  UNL1        0.0903
     16 N          -2.2497  -17.0612   22.1759 N.3     1  UNL1       -0.2946
     17 C          -2.7384  -18.0528   23.1897 C.3     1  UNL1        0.0903
     18 C          -3.8787  -17.6976   24.0971 C.3     1  UNL1        0.1079
     19 H          -1.2634  -16.8961   22.3772 H       1  UNL1        0.1233
     20 N          -9.8333  -17.7686   20.5860 N.3     1  UNL1       -0.2679
     21 C          -5.2295  -20.4983   21.3628 C.ar    1  UNL1        0.0203
     22 C          -5.8605  -19.3121   22.0296 C.ar    1  UNL1        0.0985
     23 N          -7.1847  -18.7976   21.5484 N.ar    1  UNL1       -0.2471
     24 C          -7.8781  -19.4694   20.4004 C.ar    1  UNL1        0.0695
     25 C          -7.2471  -20.6556   19.7336 C.ar    1  UNL1       -0.0073
     26 C          -5.9228  -21.1701   20.2148 C.ar    1  UNL1       -0.0015
     27 C          -7.9405  -21.3275   18.5856 C.3     1  UNL1        0.0277
     28 C          -9.2648  -20.8130   18.1044 C.3     1  UNL1        0.0065
     29 C          -9.8957  -19.6267   18.7712 C.3     1  UNL1        0.0224
     30 C          -9.2024  -18.9549   19.9192 C.3     1  UNL1        0.0978
     31 C         -11.3020  -17.7728   20.8909 C.3     1  UNL1        0.0724
     32 C         -11.7815  -18.1330   22.2658 C.3     1  UNL1        0.0160
     33 C         -13.1007  -17.6170   22.7592 C.3     1  UNL1        0.0014
     34 C         -13.5802  -17.9772   24.1340 C.3     1  UNL1        0.0000
     35 C         -12.7404  -18.8535   25.0156 C.3     1  UNL1        0.0000
     36 C         -11.4212  -19.3694   24.5223 C.3     1  UNL1        0.0000
     37 C         -10.9417  -19.0092   23.1473 C.3     1  UNL1        0.0014
@<TRIPOS>BOND
     1    21    22   ar
     2    22    23   ar
     3    23    24   ar
     4    24    25   ar
     5    25    26   ar
     6    25    27    1
     7    27    28    1
     8    28    29    1
     9    29    30    1
    10    30    20    1
    11    20    31    1
    12    31    32    1
    13    32    33    1
    14    33    34    1
    15    34    35    1
    16    35    36    1
    17    36    37    1
    18    20     1    1
    19     2     1    1
    20     2     3    1
    21     3     4    1
    22     4     5   ar
    23     5     6   ar
    24     6     7   ar
    25     7     8   ar
    26     8     9   ar
    27     9    13    1
    28    13    14    1
    29    14    15    1
    30    15    16    1
    31    16    17    1
    32    17    18    1
    33     5    10    1
    34    10    11    1
    35    26    21   ar
    36    37    32    1
    37    11     2    1
    38    30    24    1
    39     9     4   ar
    40    18    13    1
    41    16    19    1
    42    11    12    1
@<TRIPOS>MOLECULE
*****
 37 42 0 0 0
SMALL
GASTEIGER

@<TRIPOS>ATOM
      1 C           0.8820    2.9614   21.2890 C.3     1  UNL1        0.0886
      2 C           0.7072    2.4759   22.6974 C.3     1  UNL1        0.0749
      3 C          -0.4028    3.0210   23.5464 C.3     1  UNL1        0.0444
      4 C          -0.5777    2.5355   24.9548 C.ar    1  UNL1       -0.0101
      5 C           0.3575    1.5047   25.5143 C.ar    1  UNL1       -0.0091
      6 C           0.1827    1.0191   26.9227 C.ar    1  UNL1       -0.0032
      7 C          -0.9273    1.5643   27.7717 C.ar    1  UNL1        0.0010
      8 C          -1.8625    2.5951   27.2122 C.ar    1  UNL1        0.0142
      9 C          -1.6876    3.0807   25.8037 C.ar    1  UNL1        0.0436
     10 C           1.4674    0.9595   24.6654 C.3     1  UNL1        0.0954
     11 N           1.6423    1.4451   23.2569 N.3     1  UNL1       -0.2934
     12 H           1.5737    0.6263   22.6525 H       1  UNL1        0.1236
     13 N          -2.6228    4.1114   25.2442 N.pl3   1  UNL1       -0.3049
     14 C          -3.9164    3.6873   24.6142 C.3     1  UNL1        0.1079
     15 C          -4.8515    4.7181   24.0548 C.3     1  UNL1        0.0903
     16 N          -4.4931    6.1730   24.1253 N.3     1  UNL1       -0.2946
     17 C          -3.1995    6.5970   24.7553 C.3     1  UNL1        0.0903
     18 C          -2.2644    5.5662   25.3148 C.3     1  UNL1        0.1079
     19 H          -5.2391    6.6352   24.6450 H       1  UNL1        0.1233
     20 N           0.1288    2.3047   20.1703 N.3     1  UNL1       -0.2679
     21 C          -4.9861    4.0281   19.8267 C.ar    1  UNL1        0.0203
     22 C          -4.2354    3.1902   20.8188 C.ar    1  UNL1        0.0985
     23 N          -2.7806    2.8950   20.6026 N.ar    1  UNL1       -0.2471
     24 C          -2.0767    3.4378   19.3944 C.ar    1  UNL1        0.0695
     25 C          -2.8274    4.2757   18.4024 C.ar    1  UNL1       -0.0073
     26 C          -4.2821    4.5709   18.6185 C.ar    1  UNL1       -0.0015
     27 C          -2.1235    4.8186   17.1941 C.3     1  UNL1        0.0277
     28 C          -0.6688    4.5234   16.9779 C.3     1  UNL1        0.0065
     29 C           0.0820    3.6854   17.9701 C.3     1  UNL1        0.0224
     30 C          -0.6220    3.1426   19.1783 C.3     1  UNL1        0.0978
     31 C           0.1264    0.8101   20.0437 C.3     1  UNL1        0.0724
     32 C           1.3512    0.0970   19.5526 C.3     1  UNL1        0.0160
     33 C           1.9899    0.5074   18.2589 C.3     1  UNL1        0.0014
     34 C           3.2147   -0.2057   17.7678 C.3     1  UNL1        0.0000
     35 C           3.8010   -1.3292   18.5704 C.3     1  UNL1        0.0000
     36 C           3.1623   -1.7396   19.8641 C.3     1  UNL1        0.0000
     37 C           1.9374   -1.0264   20.3552 C.3     1  UNL1        0.0014
@<TRIPOS>BOND
     1    21    22   ar
     2    22    23   ar
     3    23    24   ar
     4    24    25   ar
     5    25    26   ar
     6    25    27    1
     7    27    28    1
     8    28    29    1
     9    29    30    1
    10    30    20    1
    11    20    31    1
    12    31    32    1
    13    32    33    1
    14    33    34    1
    15    34    35    1
    16    35    36    1
    17    36    37    1
    18    20     1    1
    19     2     1    1
    20     2     3    1
    21     3     4    1
    22     4     5   ar
    23     5     6   ar
    24     6     7   ar
    25     7     8   ar
    26     8     9   ar
    27     9    13    1
    28    13    14    1
    29    14    15    1
    30    15    16    1
    31    16    17    1
    32    17    18    1
    33     5    10    1
    34    10    11    1
    35    26    21   ar
    36    37    32    1
    37    11     2    1
    38    30    24    1
    39     9     4   ar
    40    18    13    1
    41    16    19    1
    42    11    12    1
@<TRIPOS>MOLECULE
*****
 37 42 0 0 0
SMALL
GASTEIGER

@<TRIPOS>ATOM
      1 C         -13.6411   -4.0046   19.6333 C.3     1  UNL1        0.0886
      2 C         -14.7706   -4.9904   19.5858 C.3     1  UNL1        0.0749
      3 C         -16.1868   -4.5046   19.4931 C.3     1  UNL1        0.0444
      4 C         -17.3163   -5.4904   19.4456 C.ar    1  UNL1       -0.0101
      5 C         -17.0297   -6.9621   19.4908 C.ar    1  UNL1       -0.0091
      6 C         -18.1592   -7.9479   19.4433 C.ar    1  UNL1       -0.0032
      7 C         -19.5754   -7.4621   19.3506 C.ar    1  UNL1        0.0010
      8 C         -19.8620   -5.9904   19.3053 C.ar    1  UNL1        0.0142
      9 C         -18.7324   -5.0046   19.3529 C.ar    1  UNL1        0.0436
     10 C         -15.6137   -7.4479   19.5835 C.3     1  UNL1        0.0954
     11 N         -14.4841   -6.4621   19.6310 N.3     1  UNL1       -0.2934
     12 H         -13.8792   -6.6688   18.8362 H       1  UNL1        0.1236
     13 N         -19.0190   -3.5329   19.3076 N.pl3   1  UNL1       -0.3049
     14 C         -19.1436   -2.7535   20.5833 C.3     1  UNL1        0.1079
     15 C         -19.4302   -1.2819   20.5380 C.3     1  UNL1        0.0903
     16 N         -19.5921   -0.5895   19.2172 N.3     1  UNL1       -0.2946
     17 C         -19.4674   -1.3689   17.9417 C.3     1  UNL1        0.0903
     18 C         -19.1809   -2.8406   17.9869 C.3     1  UNL1        0.1079
     19 H         -18.8872    0.1469   19.1824 H       1  UNL1        0.1233
     20 N         -12.9142   -3.6355   18.3741 N.3     1  UNL1       -0.2679
     21 C         -15.5839    1.0241   19.0149 C.ar    1  UNL1        0.0203
     22 C         -15.9151   -0.4115   19.2964 C.ar    1  UNL1        0.0985
     23 N         -14.9148   -1.4861   18.9890 N.ar    1  UNL1       -0.2471
     24 C         -13.5833   -1.1252   18.4000 C.ar    1  UNL1        0.0695
     25 C         -13.2521    0.3104   18.1185 C.ar    1  UNL1       -0.0073
     26 C         -14.2524    1.3851   18.4259 C.ar    1  UNL1       -0.0015
     27 C         -11.9206    0.6714   17.5295 C.3     1  UNL1        0.0277
     28 C         -10.9203   -0.4033   17.2221 C.3     1  UNL1        0.0065
     29 C         -11.2516   -1.8390   17.5037 C.3     1  UNL1        0.0224
     30 C         -12.5830   -2.1999   18.0926 C.3     1  UNL1        0.0978
     31 C         -12.5186   -4.7021   17.3965 C.3     1  UNL1        0.0724
     32 C         -11.4874   -5.7229   17.7768 C.3     1  UNL1        0.0160
     33 C         -11.4989   -7.0770   17.1316 C.3     1  UNL1        0.0014
     34 C         -10.4678   -8.0978   17.5119 C.3     1  UNL1        0.0000
     35 C          -9.4250   -7.7645   18.5374 C.3     1  UNL1        0.0000
     36 C          -9.4135   -6.4104   19.1826 C.3     1  UNL1        0.0000
     37 C         -10.4447   -5.3896   18.8023 C.3     1  UNL1        0.0014
@<TRIPOS>BOND
     1    21    22   ar
     2    22    23   ar
     3    23    24   ar
     4    24    25   ar
     5    25    26   ar
     6    25    27    1
     7    27    28    1
     8    28    29    1
     9    29    30    1
    10    30    20    1
    11    20    31    1
    12    31    32    1
    13    32    33    1
    14    33    34    1
    15    34    35    1
    16    35    36    1
    17    36    37    1
    18    20     1    1
    19     2     1    1
    20     2     3    1
    21     3     4    1
    22     4     5   ar
    23     5     6   ar
    24     6     7   ar
    25     7     8   ar
    26     8     9   ar
    27     9    13    1
    28    13    14    1
    29    14    15    1
    30    15    16    1
    31    16    17    1
    32    17    18    1
    33     5    10    1
    34    10    11    1
    35    26    21   ar
    36    37    32    1
    37    11     2    1
    38    30    24    1
    39     9     4   ar
    40    18    13    1
    41    16    19    1
    42    11    12    1
@<TRIPOS>MOLECULE
*****
 37 42 0 0 0
SMALL
GASTEIGER

@<TRIPOS>ATOM
      1 C         -15.0542   -2.3343   17.8139 C.3     1  UNL1        0.0886
      2 C         -15.7189   -3.5834   18.3119 C.3     1  UNL1        0.0749
      3 C         -14.9989   -4.8972   18.2367 C.3     1  UNL1        0.0444
      4 C         -15.6636   -6.1462   18.7347 C.ar    1  UNL1       -0.0101
      5 C         -17.0482   -6.0815   19.3079 C.ar    1  UNL1       -0.0091
      6 C         -17.7129   -7.3306   19.8058 C.ar    1  UNL1       -0.0032
      7 C         -16.9929   -8.6444   19.7307 C.ar    1  UNL1        0.0010
      8 C         -15.6082   -8.7091   19.1575 C.ar    1  UNL1        0.0142
      9 C         -14.9436   -7.4599   18.6595 C.ar    1  UNL1        0.0436
     10 C         -17.7682   -4.7678   19.3830 C.3     1  UNL1        0.0954
     11 N         -17.1036   -3.5187   18.8850 N.3     1  UNL1       -0.2934
     12 H         -17.0665   -2.8710   19.6722 H       1  UNL1        0.1236
     13 N         -13.5589   -7.5246   18.0864 N.pl3   1  UNL1       -0.3049
     14 C         -12.3745   -7.2023   18.9486 C.3     1  UNL1        0.1079
     15 C         -10.9898   -7.2669   18.3755 C.3     1  UNL1        0.0903
     16 N         -10.7896   -7.6539   16.9401 N.3     1  UNL1       -0.2946
     17 C         -11.9739   -7.9762   16.0780 C.3     1  UNL1        0.0903
     18 C         -13.3586   -7.9116   16.6511 C.3     1  UNL1        0.1079
     19 H         -10.1908   -8.4797   16.9386 H       1  UNL1        0.1233
     20 N         -14.4301   -1.3779   18.7866 N.3     1  UNL1       -0.2679
     21 C         -14.3716    3.8493   17.3999 C.ar    1  UNL1        0.0203
     22 C         -13.6084    2.6427   16.9400 C.ar    1  UNL1        0.0985
     23 N         -13.8823    1.3025   17.5555 N.ar    1  UNL1       -0.2471
     24 C         -14.9194    1.1689   18.6310 C.ar    1  UNL1        0.0695
     25 C         -15.6826    2.3755   19.0909 C.ar    1  UNL1       -0.0073
     26 C         -15.4086    3.7157   18.4754 C.ar    1  UNL1       -0.0015
     27 C         -16.7197    2.2420   20.1663 C.3     1  UNL1        0.0277
     28 C         -16.9936    0.9018   20.7818 C.3     1  UNL1        0.0065
     29 C         -16.2304   -0.3049   20.3219 C.3     1  UNL1        0.0224
     30 C         -15.1933   -0.1713   19.2465 C.3     1  UNL1        0.0978
     31 C         -13.0429   -1.6283   19.2992 C.3     1  UNL1        0.0724
     32 C         -11.9543   -2.0334   18.3501 C.3     1  UNL1        0.0160
     33 C         -11.4289   -1.0493   17.3474 C.3     1  UNL1        0.0014
     34 C         -10.3403   -1.4544   16.3983 C.3     1  UNL1        0.0000
     35 C          -9.7770   -2.8437   16.4519 C.3     1  UNL1        0.0000
     36 C         -10.3024   -3.8277   17.4547 C.3     1  UNL1        0.0000
     37 C         -11.3911   -3.4225   18.4038 C.3     1  UNL1        0.0014
@<TRIPOS>BOND
     1    21    22   ar
     2    22    23   ar
     3    23    24   ar
     4    24    25   ar
     5    25    26   ar
     6    25    27    1
     7    27    28    1
     8    28    29    1
     9    29    30    1
    10    30    20    1
    11    20    31    1
    12    31    32    1
    13    32    33    1
    14    33    34    1
    15    34    35    1
    16    35    36    1
    17    36    37    1
    18    20     1    1
    19     2     1    1
    20     2     3    1
    21     3     4    1
    22     4     5   ar
    23     5     6   ar
    24     6     7   ar
    25     7     8   ar
    26     8     9   ar
    27     9    13    1
    28    13    14    1
    29    14    15    1
    30    15    16    1
    31    16    17    1
    32    17    18    1
    33     5    10    1
    34    10    11    1
    35    26    21   ar
    36    37    32    1
    37    11     2    1
    38    30    24    1
    39     9     4   ar
    40    18    13    1
    41    16    19    1
    42    11    12    1
@<TRIPOS>MOLECULE
*****
 37 42 0 0 0
SMALL
GASTEIGER

@<TRIPOS>ATOM
      1 C           3.9152   -1.1558   25.3453 C.3     1  UNL1        0.0886
      2 C           4.2185   -1.8625   24.0575 C.3     1  UNL1        0.0749
      3 C           3.6535   -1.3460   22.7674 C.3     1  UNL1        0.0444
      4 C           3.9568   -2.0527   21.4796 C.ar    1  UNL1       -0.0101
      5 C           4.8250   -3.2759   21.4817 C.ar    1  UNL1       -0.0091
      6 C           5.1283   -3.9826   20.1939 C.ar    1  UNL1       -0.0032
      7 C           4.5634   -3.4661   18.9039 C.ar    1  UNL1        0.0010
      8 C           3.6952   -2.2429   18.9017 C.ar    1  UNL1        0.0142
      9 C           3.3919   -1.5362   20.1897 C.ar    1  UNL1        0.0436
     10 C           5.3899   -3.7924   22.7717 C.3     1  UNL1        0.0954
     11 N           5.0867   -3.0857   24.0596 N.3     1  UNL1       -0.2934
     12 H           5.9824   -2.8103   24.4624 H       1  UNL1        0.1236
     13 N           2.5237   -0.3129   20.1875 N.pl3   1  UNL1       -0.3049
     14 C           3.1454    1.0478   20.0782 C.3     1  UNL1        0.1079
     15 C           2.2772    2.2710   20.0760 C.3     1  UNL1        0.0903
     16 N           0.7873    2.1335   20.1833 N.3     1  UNL1       -0.2946
     17 C           0.1657    0.7728   20.2926 C.3     1  UNL1        0.0903
     18 C           1.0339   -0.4505   20.2947 C.3     1  UNL1        0.1079
     19 H           0.3906    2.5726   19.3525 H       1  UNL1        0.1233
     20 N           3.6607    0.3225   25.3478 N.3     1  UNL1       -0.2679
     21 C          -0.1132    0.7722   29.1955 C.ar    1  UNL1        0.0203
     22 C           1.2940    0.2534   29.1745 C.ar    1  UNL1        0.0985
     23 N           2.0829    0.2765   27.8989 N.ar    1  UNL1       -0.2471
     24 C           1.4646    0.8183   26.6443 C.ar    1  UNL1        0.0695
     25 C           0.0574    1.3370   26.6653 C.ar    1  UNL1       -0.0073
     26 C          -0.7315    1.3140   27.9409 C.ar    1  UNL1       -0.0015
     27 C          -0.5611    1.8789   25.4107 C.3     1  UNL1        0.0277
     28 C           0.2278    1.9020   24.1351 C.3     1  UNL1        0.0065
     29 C           1.6352    1.3831   24.1142 C.3     1  UNL1        0.0224
     30 C           2.2535    0.8413   25.3688 C.3     1  UNL1        0.0978
     31 C           4.8136    1.2820   25.3292 C.3     1  UNL1        0.0724
     32 C           5.3935    1.7324   24.0213 C.3     1  UNL1        0.0160
     33 C           4.8571    2.9596   23.3458 C.3     1  UNL1        0.0014
     34 C           5.4370    3.4100   22.0379 C.3     1  UNL1        0.0000
     35 C           6.5535    2.6332   21.4053 C.3     1  UNL1        0.0000
     36 C           7.0900    1.4060   22.0807 C.3     1  UNL1        0.0000
     37 C           6.5100    0.9556   23.3887 C.3     1  UNL1        0.0014
@<TRIPOS>BOND
     1    21    22   ar
     2    22    23   ar
     3    23    24   ar
     4    24    25   ar
     5    25    26   ar
     6    25    27    1
     7    27    28    1
     8    28    29    1
     9    29    30    1
    10    30    20    1
    11    20    31    1
    12    31    32    1
    13    32    33    1
    14    33    34    1
    15    34    35    1
    16    35    36    1
    17    36    37    1
    18    20     1    1
    19     2     1    1
    20     2     3    1
    21     3     4    1
    22     4     5   ar
    23     5     6   ar
    24     6     7   ar
    25     7     8   ar
    26     8     9   ar
    27     9    13    1
    28    13    14    1
    29    14    15    1
    30    15    16    1
    31    16    17    1
    32    17    18    1
    33     5    10    1
    34    10    11    1
    35    26    21   ar
    36    37    32    1
    37    11     2    1
    38    30    24    1
    39     9     4   ar
    40    18    13    1
    41    16    19    1
    42    11    12    1
@<TRIPOS>MOLECULE
*****
 37 42 0 0 0
SMALL
GASTEIGER

@<TRIPOS>ATOM
      1 C           0.7161    3.0118   21.5816 C.3     1  UNL1        0.0886
      2 C           0.3414    2.7228   23.0050 C.3     1  UNL1        0.0749
      3 C           1.3146    2.0279   23.9106 C.3     1  UNL1        0.0444
      4 C           0.9399    1.7390   25.3340 C.ar    1  UNL1       -0.0101
      5 C          -0.4081    2.1449   25.8519 C.ar    1  UNL1       -0.0091
      6 C          -0.7828    1.8560   27.2752 C.ar    1  UNL1       -0.0032
      7 C           0.1905    1.1611   28.1808 C.ar    1  UNL1        0.0010
      8 C           1.5384    0.7551   27.6629 C.ar    1  UNL1        0.0142
      9 C           1.9131    1.0441   26.2394 C.ar    1  UNL1        0.0436
     10 C          -1.3813    2.8398   24.9464 C.3     1  UNL1        0.0954
     11 N          -1.0066    3.1288   23.5229 N.3     1  UNL1       -0.2934
     12 H          -1.0777    4.1387   23.3989 H       1  UNL1        0.1236
     13 N           3.2611    0.6382   25.7215 N.pl3   1  UNL1       -0.3049
     14 C           4.4186    1.5874   25.8180 C.3     1  UNL1        0.1079
     15 C           5.7666    1.1814   25.3001 C.3     1  UNL1        0.0903
     16 N           5.9570   -0.1737   24.6857 N.3     1  UNL1       -0.2946
     17 C           4.7995   -1.1229   24.5893 C.3     1  UNL1        0.0903
     18 C           3.4515   -0.7169   25.1072 C.3     1  UNL1        0.1079
     19 H           6.6796   -0.6449   25.2301 H       1  UNL1        0.1233
     20 N           0.0083    2.3078   20.4620 N.3     1  UNL1       -0.2679
     21 C          -5.1040    4.0624   20.2728 C.ar    1  UNL1        0.0203
     22 C          -4.3114    3.2736   21.2726 C.ar    1  UNL1        0.0985
     23 N          -2.8715    2.9516   21.0024 N.ar    1  UNL1       -0.2471
     24 C          -2.2241    3.4186   19.7324 C.ar    1  UNL1        0.0695
     25 C          -3.0167    4.2074   18.7326 C.ar    1  UNL1       -0.0073
     26 C          -4.4566    4.5293   19.0028 C.ar    1  UNL1       -0.0015
     27 C          -2.3693    4.6744   17.4626 C.3     1  UNL1        0.0277
     28 C          -0.9294    4.3524   17.1924 C.3     1  UNL1        0.0065
     29 C          -0.1368    3.5636   18.1923 C.3     1  UNL1        0.0224
     30 C          -0.7842    3.0966   19.4622 C.3     1  UNL1        0.0978
     31 C           0.0931    0.8150   20.3422 C.3     1  UNL1        0.0724
     32 C           1.3283    0.1767   19.7794 C.3     1  UNL1        0.0160
     33 C           2.0510   -0.8785   20.5632 C.3     1  UNL1        0.0014
     34 C           3.2862   -1.5168   20.0004 C.3     1  UNL1        0.0000
     35 C           3.7987   -1.0999   18.6537 C.3     1  UNL1        0.0000
     36 C           3.0760   -0.0448   17.8698 C.3     1  UNL1        0.0000
     37 C           1.8408    0.5935   18.4327 C.3     1  UNL1        0.0014
@<TRIPOS>BOND
     1    21    22   ar
     2    22    23   ar
     3    23    24   ar
     4    24    25   ar
     5    25    26   ar
     6    25    27    1
     7    27    28    1
     8    28    29    1
     9    29    30    1
    10    30    20    1
    11    20    31    1
    12    31    32    1
    13    32    33    1
    14    33    34    1
    15    34    35    1
    16    35    36    1
    17    36    37    1
    18    20     1    1
    19     2     1    1
    20     2     3    1
    21     3     4    1
    22     4     5   ar
    23     5     6   ar
    24     6     7   ar
    25     7     8   ar
    26     8     9   ar
    27     9    13    1
    28    13    14    1
    29    14    15    1
    30    15    16    1
    31    16    17    1
    32    17    18    1
    33     5    10    1
    34    10    11    1
    35    26    21   ar
    36    37    32    1
    37    11     2    1
    38    30    24    1
    39     9     4   ar
    40    18    13    1
    41    16    19    1
    42    11    12    1
