@<TRIPOS>MOLECULE
*****
 28 30 0 0 0
SMALL
GASTEIGER

@<TRIPOS>ATOM
      1 C          -8.7735  -17.1196   22.5804 C.3     1  UNL1        0.0974
      2 C         -10.2401  -17.1956   22.2748 C.ar    1  UNL1       -0.0082
      3 C         -11.1778  -16.1695   22.8385 C.ar    1  UNL1       -0.0030
      4 C         -12.6443  -16.2455   22.5330 C.ar    1  UNL1       -0.0003
      5 C         -13.1732  -17.3476   21.6637 C.ar    1  UNL1       -0.0003
      6 C         -12.2355  -18.3738   21.1000 C.ar    1  UNL1       -0.0045
      7 C         -10.7690  -18.2977   21.4056 C.ar    1  UNL1       -0.0229
      8 C          -9.8312  -19.3239   20.8419 C.3     1  UNL1        0.0476
      9 C          -8.3647  -19.2479   21.1475 C.3     1  UNL1        0.0983
     10 N          -7.8358  -18.1458   22.0167 N.am    1  UNL1       -0.2760
     11 C          -6.3692  -18.0698   22.3222 C.2     1  UNL1        0.2420
     12 O          -5.8403  -16.9677   23.1915 O.2     1  UNL1       -0.2734
     13 C          -7.9526  -15.1953   22.2295 C.3     1  UNL1        0.0020
     14 C          -8.2446  -16.0175   23.4496 C.3     1  UNL1        0.0207
     15 C          -8.5366  -16.8397   24.6698 C.3     1  UNL1        0.0020
     16 C          -7.7157  -14.9154   24.3189 C.3     1  UNL1        0.0020
     17 C          -5.4315  -19.0959   21.7586 C.3     1  UNL1        0.1552
     18 N          -4.3993  -19.7334   22.6406 N.3     1  UNL1       -0.2879
     19 H          -4.1899  -20.6463   22.2365 H       1  UNL1        0.1238
     20 C          -3.0840  -19.0499   22.8709 C.3     1  UNL1        0.0961
     21 C          -2.1746  -18.7637   21.7129 C.3     1  UNL1        0.1027
     22 O          -2.2600  -20.2580   21.6140 O.3     1  UNL1       -0.3854
     23 C          -2.4050  -17.3689   22.2141 C.3     1  UNL1        0.0283
     24 C          -1.7557  -16.2067   21.5229 C.3     1  UNL1        0.0024
     25 C          -0.8759  -16.4395   20.3305 C.3     1  UNL1        0.0002
     26 C          -0.6454  -17.8344   19.8293 C.3     1  UNL1        0.0024
     27 C          -1.2947  -18.9965   20.5205 C.3     1  UNL1        0.0283
     28 H          -2.8322  -20.5967   22.3202 H       1  UNL1        0.2103
@<TRIPOS>BOND
     1    13    14    1
     2    14    15    1
     3    14    16    1
     4    14     1    1
     5     1     2    1
     6     2     3   ar
     7     3     4   ar
     8     4     5   ar
     9     5     6   ar
    10     6     7   ar
    11     7     8    1
    12     8     9    1
    13     9    10    1
    14    10    11   am
    15    11    12    2
    16    11    17    1
    17    17    18    1
    18    18    20    1
    19    20    21    1
    20    21    22    1
    21    21    23    1
    22    23    24    1
    23    24    25    1
    24    25    26    1
    25    26    27    1
    26    10     1    1
    27    27    21    1
    28     7     2   ar
    29    18    19    1
    30    22    28    1
@<TRIPOS>MOLECULE
*****
 28 30 0 0 0
SMALL
GASTEIGER

@<TRIPOS>ATOM
      1 C         -10.6367  -18.4630   22.1056 C.3     1  UNL1        0.0974
      2 C         -11.7512  -18.4302   23.1091 C.ar    1  UNL1       -0.0082
      3 C         -13.0795  -17.8420   22.7357 C.ar    1  UNL1       -0.0030
      4 C         -14.1939  -17.8091   23.7392 C.ar    1  UNL1       -0.0003
      5 C         -13.9800  -18.3645   25.1160 C.ar    1  UNL1       -0.0003
      6 C         -12.6517  -18.9526   25.4895 C.ar    1  UNL1       -0.0045
      7 C         -11.5373  -18.9855   24.4860 C.ar    1  UNL1       -0.0229
      8 C         -10.2088  -19.5737   24.8594 C.3     1  UNL1        0.0476
      9 C          -9.0944  -19.6066   23.8560 C.3     1  UNL1        0.0983
     10 N          -9.3084  -19.0512   22.4791 N.am    1  UNL1       -0.2760
     11 C          -8.1939  -19.0841   21.4756 C.2     1  UNL1        0.2420
     12 O          -8.4078  -18.5288   20.0987 O.2     1  UNL1       -0.2734
     13 C         -11.2401  -19.2711   20.2394 C.3     1  UNL1        0.0020
     14 C         -10.8507  -17.9077   20.7287 C.3     1  UNL1        0.0207
     15 C         -10.4612  -16.5443   21.2181 C.3     1  UNL1        0.0020
     16 C         -11.0646  -17.3524   19.3518 C.3     1  UNL1        0.0020
     17 C          -6.8655  -19.6723   21.8490 C.3     1  UNL1        0.1552
     18 N          -5.7465  -18.7767   22.2914 N.3     1  UNL1       -0.2879
     19 H          -5.9260  -18.5414   23.2675 H       1  UNL1        0.1238
     20 C          -4.3273  -19.2564   22.2155 C.3     1  UNL1        0.0961
     21 C          -3.2371  -18.3115   21.8051 C.3     1  UNL1        0.1027
     22 O          -3.3993  -17.9135   23.2422 O.3     1  UNL1       -0.3854
     23 C          -3.4535  -19.0375   20.5105 C.3     1  UNL1        0.0283
     24 C          -2.6361  -18.6805   19.3046 C.3     1  UNL1        0.0024
     25 C          -1.6022  -17.5972   19.3933 C.3     1  UNL1        0.0002
     26 C          -1.3858  -16.8712   20.6878 C.3     1  UNL1        0.0024
     27 C          -2.2032  -17.2282   21.8937 C.3     1  UNL1        0.0283
     28 H          -4.0918  -18.4556   23.6516 H       1  UNL1        0.2103
@<TRIPOS>BOND
     1    13    14    1
     2    14    15    1
     3    14    16    1
     4    14     1    1
     5     1     2    1
     6     2     3   ar
     7     3     4   ar
     8     4     5   ar
     9     5     6   ar
    10     6     7   ar
    11     7     8    1
    12     8     9    1
    13     9    10    1
    14    10    11   am
    15    11    12    2
    16    11    17    1
    17    17    18    1
    18    18    20    1
    19    20    21    1
    20    21    22    1
    21    21    23    1
    22    23    24    1
    23    24    25    1
    24    25    26    1
    25    26    27    1
    26    10     1    1
    27    27    21    1
    28     7     2   ar
    29    18    19    1
    30    22    28    1
@<TRIPOS>MOLECULE
*****
 28 30 0 0 0
SMALL
GASTEIGER

@<TRIPOS>ATOM
      1 C          -8.5547  -17.2298   23.9420 C.3     1  UNL1        0.0974
      2 C          -7.9893  -16.4199   25.0710 C.ar    1  UNL1       -0.0082
      3 C          -8.8715  -16.0030   26.2102 C.ar    1  UNL1       -0.0030
      4 C          -8.3061  -15.1933   27.3392 C.ar    1  UNL1       -0.0003
      5 C          -6.8585  -14.8004   27.3288 C.ar    1  UNL1       -0.0003
      6 C          -5.9763  -15.2173   26.1896 C.ar    1  UNL1       -0.0045
      7 C          -6.5417  -16.0270   25.0607 C.ar    1  UNL1       -0.0229
      8 C          -5.6596  -16.4440   23.9213 C.3     1  UNL1        0.0476
      9 C          -6.2250  -17.2538   22.7924 C.3     1  UNL1        0.0983
     10 N          -7.6726  -17.6467   22.8028 N.am    1  UNL1       -0.2760
     11 C          -8.2380  -18.4565   21.6737 C.2     1  UNL1        0.2420
     12 O          -9.6856  -18.8494   21.6841 O.2     1  UNL1       -0.2734
     13 C          -9.6590  -18.8676   24.7153 C.3     1  UNL1        0.0020
     14 C         -10.0023  -17.6227   23.9523 C.3     1  UNL1        0.0207
     15 C         -10.3457  -16.3777   23.1893 C.3     1  UNL1        0.0020
     16 C         -11.4499  -18.0155   23.9626 C.3     1  UNL1        0.0020
     17 C          -7.3558  -18.8734   20.5345 C.3     1  UNL1        0.1552
     18 N          -6.4969  -20.0967   20.6599 N.3     1  UNL1       -0.2879
     19 H          -7.0154  -20.8653   20.2347 H       1  UNL1        0.1238
     20 C          -5.1239  -20.1142   20.0560 C.3     1  UNL1        0.0961
     21 C          -3.9642  -19.5378   20.8129 C.3     1  UNL1        0.1027
     22 O          -4.7296  -20.1600   21.9431 O.3     1  UNL1       -0.3854
     23 C          -3.6016  -19.1159   19.4199 C.3     1  UNL1        0.0283
     24 C          -2.3452  -18.3336   19.1763 C.3     1  UNL1        0.0024
     25 C          -1.4513  -17.9733   20.3258 C.3     1  UNL1        0.0002
     26 C          -1.8138  -18.3953   21.7188 C.3     1  UNL1        0.0024
     27 C          -3.0703  -19.1775   21.9624 C.3     1  UNL1        0.0283
     28 H          -5.5302  -20.5840   21.5966 H       1  UNL1        0.2103
@<TRIPOS>BOND
     1    13    14    1
     2    14    15    1
     3    14    16    1
     4    14     1    1
     5     1     2    1
     6     2     3   ar
     7     3     4   ar
     8     4     5   ar
     9     5     6   ar
    10     6     7   ar
    11     7     8    1
    12     8     9    1
    13     9    10    1
    14    10    11   am
    15    11    12    2
    16    11    17    1
    17    17    18    1
    18    18    20    1
    19    20    21    1
    20    21    22    1
    21    21    23    1
    22    23    24    1
    23    24    25    1
    24    25    26    1
    25    26    27    1
    26    10     1    1
    27    27    21    1
    28     7     2   ar
    29    18    19    1
    30    22    28    1
@<TRIPOS>MOLECULE
*****
 28 30 0 0 0
SMALL
GASTEIGER

@<TRIPOS>ATOM
      1 C          -8.7982  -17.6482   21.9407 C.3     1  UNL1        0.0974
      2 C          -8.9924  -18.6128   20.8084 C.ar    1  UNL1       -0.0082
      3 C         -10.3564  -18.8094   20.2162 C.ar    1  UNL1       -0.0030
      4 C         -10.5505  -19.7740   19.0840 C.ar    1  UNL1       -0.0003
      5 C          -9.3806  -20.5419   18.5441 C.ar    1  UNL1       -0.0003
      6 C          -8.0166  -20.3454   19.1363 C.ar    1  UNL1       -0.0045
      7 C          -7.8225  -19.3808   20.2685 C.ar    1  UNL1       -0.0229
      8 C          -6.4584  -19.1842   20.8608 C.3     1  UNL1        0.0476
      9 C          -6.2643  -18.2196   21.9930 C.3     1  UNL1        0.0983
     10 N          -7.4342  -17.4516   22.5329 N.am    1  UNL1       -0.2760
     11 C          -7.2401  -16.4870   23.6652 C.2     1  UNL1        0.2420
     12 O          -8.4100  -15.7190   24.2051 O.2     1  UNL1       -0.2734
     13 C         -10.2052  -17.9567   23.4980 C.3     1  UNL1        0.0020
     14 C          -9.9681  -16.8802   22.4806 C.3     1  UNL1        0.0207
     15 C          -9.7310  -15.8038   21.4632 C.3     1  UNL1        0.0020
     16 C         -11.1380  -16.1122   23.0206 C.3     1  UNL1        0.0020
     17 C          -5.8761  -16.2904   24.2574 C.3     1  UNL1        0.1552
     18 N          -4.7213  -15.9203   23.3745 N.3     1  UNL1       -0.2879
     19 H          -4.4290  -14.9826   23.6497 H       1  UNL1        0.1238
     20 C          -3.4864  -16.7716   23.3586 C.3     1  UNL1        0.0961
     21 C          -2.7492  -16.9997   22.0723 C.3     1  UNL1        0.1027
     22 O          -2.7994  -15.5005   22.0815 O.3     1  UNL1       -0.3854
     23 C          -2.9550  -18.4196   22.5099 C.3     1  UNL1        0.0283
     24 C          -2.4411  -19.5469   21.6644 C.3     1  UNL1        0.0024
     25 C          -1.7213  -19.2544   20.3813 C.3     1  UNL1        0.0002
     26 C          -1.5155  -17.8345   19.9437 C.3     1  UNL1        0.0024
     27 C          -2.0294  -16.7071   20.7892 C.3     1  UNL1        0.0283
     28 H          -3.2612  -15.1973   22.8788 H       1  UNL1        0.2103
@<TRIPOS>BOND
     1    13    14    1
     2    14    15    1
     3    14    16    1
     4    14     1    1
     5     1     2    1
     6     2     3   ar
     7     3     4   ar
     8     4     5   ar
     9     5     6   ar
    10     6     7   ar
    11     7     8    1
    12     8     9    1
    13     9    10    1
    14    10    11   am
    15    11    12    2
    16    11    17    1
    17    17    18    1
    18    18    20    1
    19    20    21    1
    20    21    22    1
    21    21    23    1
    22    23    24    1
    23    24    25    1
    24    25    26    1
    25    26    27    1
    26    10     1    1
    27    27    21    1
    28     7     2   ar
    29    18    19    1
    30    22    28    1
@<TRIPOS>MOLECULE
*****
 28 30 0 0 0
SMALL
GASTEIGER

@<TRIPOS>ATOM
      1 C          -6.3726  -19.4559   20.7273 C.3     1  UNL1        0.0974
      2 C          -7.7040  -19.6290   20.0583 C.ar    1  UNL1       -0.0082
      3 C          -7.8267  -20.5062   18.8477 C.ar    1  UNL1       -0.0030
      4 C          -9.1581  -20.6792   18.1789 C.ar    1  UNL1       -0.0003
      5 C         -10.3667  -19.9752   18.7206 C.ar    1  UNL1       -0.0003
      6 C         -10.2440  -19.0981   19.9311 C.ar    1  UNL1       -0.0045
      7 C          -8.9127  -18.9250   20.6000 C.ar    1  UNL1       -0.0229
      8 C          -8.7899  -18.0478   21.8107 C.3     1  UNL1        0.0476
      9 C          -7.4585  -17.8748   22.4796 C.3     1  UNL1        0.0983
     10 N          -6.2499  -18.5788   21.9379 N.am    1  UNL1       -0.2760
     11 C          -4.9184  -18.4057   22.6068 C.2     1  UNL1        0.2420
     12 O          -3.7098  -19.1098   22.0651 O.2     1  UNL1       -0.2734
     13 C          -4.7481  -18.9033   19.4800 C.3     1  UNL1        0.0020
     14 C          -5.1639  -20.1600   20.1856 C.3     1  UNL1        0.0207
     15 C          -5.5797  -21.4167   20.8912 C.3     1  UNL1        0.0020
     16 C          -3.9552  -20.8640   19.6439 C.3     1  UNL1        0.0020
     17 C          -4.7957  -17.5286   23.8174 C.3     1  UNL1        0.1552
     18 N          -4.2478  -16.1387   23.6840 N.3     1  UNL1       -0.2879
     19 H          -3.8200  -16.0783   22.7601 H       1  UNL1        0.1238
     20 C          -5.1614  -14.9564   23.8164 C.3     1  UNL1        0.0961
     21 C          -6.5055  -15.1158   24.4629 C.3     1  UNL1        0.1027
     22 O          -6.9265  -14.8667   23.0448 O.3     1  UNL1       -0.3854
     23 C          -5.6178  -15.3095   25.6563 C.3     1  UNL1        0.0283
     24 C          -6.2203  -15.5762   27.0038 C.3     1  UNL1        0.0024
     25 C          -7.7106  -15.6492   27.1579 C.3     1  UNL1        0.0002
     26 C          -8.5983  -15.4554   25.9645 C.3     1  UNL1        0.0024
     27 C          -7.9958  -15.1888   24.6169 C.3     1  UNL1        0.0283
     28 H          -6.1398  -14.7411   22.4914 H       1  UNL1        0.2103
@<TRIPOS>BOND
     1    13    14    1
     2    14    15    1
     3    14    16    1
     4    14     1    1
     5     1     2    1
     6     2     3   ar
     7     3     4   ar
     8     4     5   ar
     9     5     6   ar
    10     6     7   ar
    11     7     8    1
    12     8     9    1
    13     9    10    1
    14    10    11   am
    15    11    12    2
    16    11    17    1
    17    17    18    1
    18    18    20    1
    19    20    21    1
    20    21    22    1
    21    21    23    1
    22    23    24    1
    23    24    25    1
    24    25    26    1
    25    26    27    1
    26    10     1    1
    27    27    21    1
    28     7     2   ar
    29    18    19    1
    30    22    28    1
@<TRIPOS>MOLECULE
*****
 28 30 0 0 0
SMALL
GASTEIGER

@<TRIPOS>ATOM
      1 C          -6.7365  -18.6367   21.4915 C.3     1  UNL1        0.0974
      2 C          -6.0957  -17.8084   22.5655 C.ar    1  UNL1       -0.0082
      3 C          -4.7194  -18.1494   23.0549 C.ar    1  UNL1       -0.0030
      4 C          -4.0787  -17.3211   24.1288 C.ar    1  UNL1       -0.0003
      5 C          -4.8142  -16.1518   24.7133 C.ar    1  UNL1       -0.0003
      6 C          -6.1905  -15.8108   24.2240 C.ar    1  UNL1       -0.0045
      7 C          -6.8312  -16.6391   23.1500 C.ar    1  UNL1       -0.0229
      8 C          -8.2076  -16.2981   22.6606 C.3     1  UNL1        0.0476
      9 C          -8.8483  -17.1264   21.5867 C.3     1  UNL1        0.0983
     10 N          -8.1128  -18.2957   21.0022 N.am    1  UNL1       -0.2760
     11 C          -8.7536  -19.1240   19.9282 C.2     1  UNL1        0.2420
     12 O          -8.0180  -20.2933   19.3437 O.2     1  UNL1       -0.2734
     13 C          -5.4287  -18.9150   19.8447 C.3     1  UNL1        0.0020
     14 C          -6.0009  -19.8060   20.9070 C.3     1  UNL1        0.0207
     15 C          -6.5732  -20.6971   21.9693 C.3     1  UNL1        0.0020
     16 C          -5.2654  -20.9753   20.3225 C.3     1  UNL1        0.0020
     17 C         -10.1298  -18.7830   19.4388 C.3     1  UNL1        0.1552
     18 N         -11.3294  -19.4363   20.0586 N.3     1  UNL1       -0.2879
     19 H         -11.6556  -20.1409   19.3971 H       1  UNL1        0.1238
     20 C         -11.2092  -20.1155   21.3906 C.3     1  UNL1        0.0961
     21 C         -11.2225  -19.3024   22.6510 C.3     1  UNL1        0.1027
     22 O         -12.2676  -18.5733   21.8597 O.3     1  UNL1       -0.3854
     23 C         -10.1728  -20.3138   23.0046 C.3     1  UNL1        0.0283
     24 C          -9.4993  -20.2590   24.3437 C.3     1  UNL1        0.0024
     25 C          -9.8755  -19.1927   25.3294 C.3     1  UNL1        0.0002
     26 C         -10.9252  -18.1812   24.9758 C.3     1  UNL1        0.0024
     27 C         -11.5987  -18.2360   23.6366 C.3     1  UNL1        0.0283
     28 H         -12.3723  -18.9979   20.9939 H       1  UNL1        0.2103
@<TRIPOS>BOND
     1    13    14    1
     2    14    15    1
     3    14    16    1
     4    14     1    1
     5     1     2    1
     6     2     3   ar
     7     3     4   ar
     8     4     5   ar
     9     5     6   ar
    10     6     7   ar
    11     7     8    1
    12     8     9    1
    13     9    10    1
    14    10    11   am
    15    11    12    2
    16    11    17    1
    17    17    18    1
    18    18    20    1
    19    20    21    1
    20    21    22    1
    21    21    23    1
    22    23    24    1
    23    24    25    1
    24    25    26    1
    25    26    27    1
    26    10     1    1
    27    27    21    1
    28     7     2   ar
    29    18    19    1
    30    22    28    1
@<TRIPOS>MOLECULE
*****
 28 30 0 0 0
SMALL
GASTEIGER

@<TRIPOS>ATOM
      1 C         -12.5542   -6.3728   17.3752 C.3     1  UNL1        0.0974
      2 C         -13.9123   -6.9319   17.6801 C.ar    1  UNL1       -0.0082
      3 C         -14.0491   -8.3402   18.1781 C.ar    1  UNL1       -0.0030
      4 C         -15.4072   -8.8992   18.4830 C.ar    1  UNL1       -0.0003
      5 C         -16.6285   -8.0500   18.2898 C.ar    1  UNL1       -0.0003
      6 C         -16.4917   -6.6418   17.7918 C.ar    1  UNL1       -0.0045
      7 C         -15.1336   -6.0827   17.4869 C.ar    1  UNL1       -0.0229
      8 C         -14.9968   -4.6744   16.9889 C.3     1  UNL1        0.0476
      9 C         -13.6387   -4.1153   16.6840 C.3     1  UNL1        0.0983
     10 N         -12.4174   -4.9645   16.8771 N.am    1  UNL1       -0.2760
     11 C         -11.0593   -4.4054   16.5722 C.2     1  UNL1        0.2420
     12 O          -9.8380   -5.2546   16.7654 O.2     1  UNL1       -0.2734
     13 C         -11.1689   -6.6710   18.9538 C.3     1  UNL1        0.0020
     14 C         -11.3329   -7.2220   17.5683 C.3     1  UNL1        0.0207
     15 C         -11.4969   -7.7729   16.1828 C.3     1  UNL1        0.0020
     16 C         -10.1116   -8.0711   17.7614 C.3     1  UNL1        0.0020
     17 C         -10.9225   -2.9971   16.0742 C.3     1  UNL1        0.1552
     18 N         -10.2679   -1.9575   16.9348 N.3     1  UNL1       -0.2879
     19 H          -9.8301   -1.2861   16.3040 H       1  UNL1        0.1238
     20 C         -11.0885   -1.1651   17.9090 C.3     1  UNL1        0.0961
     21 C         -12.0009   -1.8699   18.8686 C.3     1  UNL1        0.1027
     22 O         -10.7019   -2.5409   19.2037 O.3     1  UNL1       -0.3854
     23 C         -12.9829   -0.9541   18.2002 C.3     1  UNL1        0.0283
     24 C         -14.4263   -0.9760   18.6078 C.3     1  UNL1        0.0024
     25 C         -14.8876   -1.9138   19.6838 C.3     1  UNL1        0.0002
     26 C         -13.9056   -2.8296   20.3522 C.3     1  UNL1        0.0024
     27 C         -12.4622   -2.8077   19.9446 C.3     1  UNL1        0.0283
     28 H          -9.9966   -2.1772   18.6459 H       1  UNL1        0.2103
@<TRIPOS>BOND
     1    13    14    1
     2    14    15    1
     3    14    16    1
     4    14     1    1
     5     1     2    1
     6     2     3   ar
     7     3     4   ar
     8     4     5   ar
     9     5     6   ar
    10     6     7   ar
    11     7     8    1
    12     8     9    1
    13     9    10    1
    14    10    11   am
    15    11    12    2
    16    11    17    1
    17    17    18    1
    18    18    20    1
    19    20    21    1
    20    21    22    1
    21    21    23    1
    22    23    24    1
    23    24    25    1
    24    25    26    1
    25    26    27    1
    26    10     1    1
    27    27    21    1
    28     7     2   ar
    29    18    19    1
    30    22    28    1
@<TRIPOS>MOLECULE
*****
 28 30 0 0 0
SMALL
GASTEIGER

@<TRIPOS>ATOM
      1 C          -7.7369  -17.1353   22.4027 C.3     1  UNL1        0.0974
      2 C          -6.4370  -17.8831   22.3660 C.ar    1  UNL1       -0.0082
      3 C          -5.3622  -17.5681   23.3637 C.ar    1  UNL1       -0.0030
      4 C          -4.0624  -18.3159   23.3270 C.ar    1  UNL1       -0.0003
      5 C          -3.8374  -19.3786   22.2926 C.ar    1  UNL1       -0.0003
      6 C          -4.9123  -19.6936   21.2949 C.ar    1  UNL1       -0.0045
      7 C          -6.2120  -18.9458   21.3316 C.ar    1  UNL1       -0.0229
      8 C          -7.2870  -19.2608   20.3338 C.3     1  UNL1        0.0476
      9 C          -8.5867  -18.5130   20.3705 C.3     1  UNL1        0.0983
     10 N          -8.8117  -17.4503   21.4049 N.am    1  UNL1       -0.2760
     11 C         -10.1115  -16.7025   21.4416 C.2     1  UNL1        0.2420
     12 O         -10.3365  -15.6398   22.4760 O.2     1  UNL1       -0.2734
     13 C          -7.4150  -15.0406   22.4957 C.3     1  UNL1        0.0020
     14 C          -7.9618  -16.0726   23.4371 C.3     1  UNL1        0.0207
     15 C          -8.5086  -17.1045   24.3784 C.3     1  UNL1        0.0020
     16 C          -8.1868  -15.0098   24.4715 C.3     1  UNL1        0.0020
     17 C         -11.1864  -17.0175   20.4439 C.3     1  UNL1        0.1552
     18 N         -12.6201  -17.0793   20.8804 N.3     1  UNL1       -0.2879
     19 H         -13.1853  -17.1081   20.0318 H       1  UNL1        0.1238
     20 C         -13.0907  -18.2053   21.7527 C.3     1  UNL1        0.0961
     21 C         -12.3535  -18.5330   23.0172 C.3     1  UNL1        0.1027
     22 O         -13.2543  -17.4422   23.5161 O.3     1  UNL1       -0.3854
     23 C         -11.7087  -19.5098   22.0792 C.3     1  UNL1        0.0283
     24 C         -10.6395  -20.4356   22.5789 C.3     1  UNL1        0.0024
     25 C         -10.2152  -20.3845   24.0167 C.3     1  UNL1        0.0002
     26 C         -10.8599  -19.4077   24.9548 C.3     1  UNL1        0.0024
     27 C         -11.9291  -18.4819   24.4550 C.3     1  UNL1        0.0283
     28 H         -13.8081  -17.1215   22.7871 H       1  UNL1        0.2103
@<TRIPOS>BOND
     1    13    14    1
     2    14    15    1
     3    14    16    1
     4    14     1    1
     5     1     2    1
     6     2     3   ar
     7     3     4   ar
     8     4     5   ar
     9     5     6   ar
    10     6     7   ar
    11     7     8    1
    12     8     9    1
    13     9    10    1
    14    10    11   am
    15    11    12    2
    16    11    17    1
    17    17    18    1
    18    18    20    1
    19    20    21    1
    20    21    22    1
    21    21    23    1
    22    23    24    1
    23    24    25    1
    24    25    26    1
    25    26    27    1
    26    10     1    1
    27    27    21    1
    28     7     2   ar
    29    18    19    1
    30    22    28    1
@<TRIPOS>MOLECULE
*****
 28 30 0 0 0
SMALL
GASTEIGER

@<TRIPOS>ATOM
      1 C          -8.2401  -18.2694   22.0783 C.3     1  UNL1        0.0974
      2 C          -9.6880  -17.8773   22.0707 C.ar    1  UNL1       -0.0082
      3 C         -10.6833  -18.6982   21.3055 C.ar    1  UNL1       -0.0030
      4 C         -12.1311  -18.3061   21.2979 C.ar    1  UNL1       -0.0003
      5 C         -12.5836  -17.0931   22.0555 C.ar    1  UNL1       -0.0003
      6 C         -11.5883  -16.2722   22.8206 C.ar    1  UNL1       -0.0045
      7 C         -10.1405  -16.6643   22.8282 C.ar    1  UNL1       -0.0229
      8 C          -9.1452  -15.8434   23.5934 C.3     1  UNL1        0.0476
      9 C          -7.6974  -16.2355   23.6010 C.3     1  UNL1        0.0983
     10 N          -7.2448  -17.4484   22.8434 N.am    1  UNL1       -0.2760
     11 C          -5.7970  -17.8405   22.8510 C.2     1  UNL1        0.2420
     12 O          -5.3444  -19.0535   22.0935 O.2     1  UNL1       -0.2734
     13 C          -7.6400  -18.6524   20.0800 C.3     1  UNL1        0.0020
     14 C          -7.7876  -19.4823   21.3207 C.3     1  UNL1        0.0207
     15 C          -7.9352  -20.3123   22.5614 C.3     1  UNL1        0.0020
     16 C          -7.3351  -20.6953   20.5632 C.3     1  UNL1        0.0020
     17 C          -4.8017  -17.0196   23.6161 C.3     1  UNL1        0.1552
     18 N          -3.4412  -17.5766   23.9143 N.3     1  UNL1       -0.2879
     19 H          -3.5159  -18.5912   23.8409 H       1  UNL1        0.1238
     20 C          -2.2639  -17.1675   23.0796 C.3     1  UNL1        0.0961
     21 C          -2.3301  -17.2763   21.5850 C.3     1  UNL1        0.1027
     22 O          -2.3721  -15.7849   21.7397 O.3     1  UNL1       -0.3854
     23 C          -2.2652  -18.7299   21.9494 C.3     1  UNL1        0.0283
     24 C          -2.2810  -19.7744   20.8729 C.3     1  UNL1        0.0024
     25 C          -2.3618  -19.3652   19.4320 C.3     1  UNL1        0.0002
     26 C          -2.4268  -17.9116   19.0677 C.3     1  UNL1        0.0024
     27 C          -2.4109  -16.8672   20.1441 C.3     1  UNL1        0.0283
     28 H          -2.3356  -15.5564   22.6817 H       1  UNL1        0.2103
@<TRIPOS>BOND
     1    13    14    1
     2    14    15    1
     3    14    16    1
     4    14     1    1
     5     1     2    1
     6     2     3   ar
     7     3     4   ar
     8     4     5   ar
     9     5     6   ar
    10     6     7   ar
    11     7     8    1
    12     8     9    1
    13     9    10    1
    14    10    11   am
    15    11    12    2
    16    11    17    1
    17    17    18    1
    18    18    20    1
    19    20    21    1
    20    21    22    1
    21    21    23    1
    22    23    24    1
    23    24    25    1
    24    25    26    1
    25    26    27    1
    26    10     1    1
    27    27    21    1
    28     7     2   ar
    29    18    19    1
    30    22    28    1
