@<TRIPOS>MOLECULE
*****
 35 39 0 0 0
SMALL
GASTEIGER

@<TRIPOS>ATOM
      1 C          -3.1007  -17.2470   23.9785 C.3     1  UNL1        0.0730
      2 N          -3.0978  -18.1921   22.8137 N.3     1  UNL1       -0.2726
      3 C          -1.8832  -18.7770   22.1559 C.3     1  UNL1        0.0721
      4 C          -2.3437  -19.6646   21.0378 C.3     1  UNL1        0.0190
      5 C          -3.8429  -19.6283   21.0046 C.3     1  UNL1        0.0201
      6 C          -3.9968  -20.5644   19.8427 C.3     1  UNL1        0.0061
      7 C          -5.2113  -19.9795   20.5005 C.3     1  UNL1        0.0237
      8 C          -4.3090  -18.7182   22.1022 C.3     1  UNL1        0.0724
      9 C          -6.7026  -19.8446   20.5893 C.ar    1  UNL1       -0.0225
     10 C          -7.5060  -19.5721   19.3522 C.ar    1  UNL1       -0.0043
     11 C          -8.9972  -19.4372   19.4409 C.ar    1  UNL1        0.0035
     12 C          -9.6851  -19.5748   20.7668 C.ar    1  UNL1        0.0714
     13 C          -8.8818  -19.8473   22.0038 C.ar    1  UNL1        0.0035
     14 C          -7.3905  -19.9822   21.9151 C.ar    1  UNL1       -0.0043
     15 C         -11.1764  -19.4399   20.8555 C.3     1  UNL1        0.4186
     16 F         -12.6678  -19.3050   20.9443 F       1  UNL1       -0.1659
     17 F         -11.1560  -18.4648   19.7159 F       1  UNL1       -0.1659
     18 F         -11.1968  -20.4150   21.9951 F       1  UNL1       -0.1659
     19 C          -4.1353  -17.3872   25.0555 C.3     1  UNL1        0.0294
     20 C          -4.7053  -16.1648   25.7118 C.3     1  UNL1        0.0666
     21 S          -5.4856  -15.1730   24.9010 S.3     1  UNL1       -0.0756
     22 C          -8.5993  -15.6034   25.7781 C.3     1  UNL1        0.1337
     23 N          -8.0274  -15.8401   24.4117 N.ar    1  UNL1       -0.2918
     24 C          -6.5962  -15.6423   24.0086 C.ar    1  UNL1        0.1930
     25 N          -6.4706  -15.9961   22.5563 N.ar    1  UNL1       -0.1224
     26 N          -7.8241  -16.4126   22.0619 N.ar    1  UNL1       -0.1328
     27 C          -8.7864  -16.3162   23.2086 C.ar    1  UNL1        0.1437
     28 C         -10.2504  -16.6391   23.1606 C.3     1  UNL1        0.0696
     29 C         -11.1459  -15.9196   22.1961 C.3     1  UNL1        0.0293
     30 C         -12.6100  -16.2426   22.1481 C.3     1  UNL1        0.0898
     31 N         -13.1784  -17.2852   23.0647 N.am    1  UNL1       -0.3043
     32 C         -12.2829  -18.0047   24.0292 C.2     1  UNL1        0.2229
     33 O         -12.8514  -19.0472   24.9457 O.2     1  UNL1       -0.2751
     34 C         -10.8188  -17.6816   24.0771 C.3     1  UNL1        0.0926
     35 H         -14.1393  -17.4972   23.0332 H       1  UNL1        0.1494
@<TRIPOS>BOND
     1    22    23    1
     2    23    24   ar
     3    24    21    1
     4    21    20    1
     5    20    19    1
     6    19     1    1
     7     1     2    1
     8     2     3    1
     9     3     4    1
    10     5     4    1
    11     5     6    1
    12     6     7    1
    13     7     9    1
    14     9    10   ar
    15    10    11   ar
    16    11    12   ar
    17    12    15    1
    18    15    16    1
    19    15    17    1
    20    15    18    1
    21    12    13   ar
    22    13    14   ar
    23     5     8    1
    24    24    25   ar
    25    25    26   ar
    26    26    27   ar
    27    27    28    1
    28    28    29    1
    29    29    30    1
    30    30    31    1
    31    31    32   am
    32    32    33    2
    33    32    34    1
    34    27    23   ar
    35    34    28    1
    36     8     2    1
    37     7     5    1
    38    14     9   ar
    39    31    35    1
@<TRIPOS>MOLECULE
*****
 35 39 0 0 0
SMALL
GASTEIGER

@<TRIPOS>ATOM
      1 C         -11.0792  -18.7622   19.3722 C.3     1  UNL1        0.0730
      2 N         -10.4591  -19.2782   20.6368 N.3     1  UNL1       -0.2726
      3 C         -11.1984  -19.8237   21.8225 C.3     1  UNL1        0.0721
      4 C         -10.1871  -20.2220   22.8561 C.3     1  UNL1        0.0190
      5 C          -8.8227  -19.9227   22.3093 C.3     1  UNL1        0.0201
      6 C          -8.0634  -20.4046   23.5098 C.3     1  UNL1        0.0061
      7 C          -7.3242  -19.8592   22.3241 C.3     1  UNL1        0.0237
      8 C          -8.9909  -19.3394   20.9376 C.3     1  UNL1        0.0724
      9 C          -6.0321  -19.5076   21.6480 C.ar    1  UNL1       -0.0225
     10 C          -6.0034  -19.2564   20.1695 C.ar    1  UNL1       -0.0043
     11 C          -4.7114  -18.9048   19.4934 C.ar    1  UNL1        0.0035
     12 C          -3.4481  -18.8044   20.2959 C.ar    1  UNL1        0.0714
     13 C          -3.4769  -19.0556   21.7745 C.ar    1  UNL1        0.0035
     14 C          -4.7689  -19.4072   22.4505 C.ar    1  UNL1       -0.0043
     15 C          -2.1561  -18.4528   19.6199 C.3     1  UNL1        0.4186
     16 F          -0.8640  -18.1012   18.9438 F       1  UNL1       -0.1659
     17 F          -2.8911  -17.5266   18.6969 F       1  UNL1       -0.1659
     18 F          -1.4211  -19.3790   20.5428 F       1  UNL1       -0.1659
     19 C         -11.3168  -17.2912   19.1993 C.3     1  UNL1        0.0294
     20 C         -12.2457  -16.5672   20.1283 C.3     1  UNL1        0.0666
     21 S         -11.8084  -16.2467   21.5268 S.3     1  UNL1       -0.0756
     22 C         -10.1334  -16.9664   24.2335 C.3     1  UNL1        0.1337
     23 N          -9.6088  -16.2161   23.0453 N.ar    1  UNL1       -0.2918
     24 C         -10.3786  -15.8853   21.8012 C.ar    1  UNL1        0.1930
     25 N          -9.4678  -15.1296   20.8796 N.ar    1  UNL1       -0.1224
     26 N          -8.1350  -14.9933   21.5542 N.ar    1  UNL1       -0.1328
     27 C          -8.2221  -15.6648   22.8927 C.ar    1  UNL1        0.1437
     28 C          -7.1166  -15.7671   23.9014 C.3     1  UNL1        0.0696
     29 C          -5.7632  -16.2608   23.4835 C.3     1  UNL1        0.0293
     30 C          -4.6577  -16.3630   24.4922 C.3     1  UNL1        0.0898
     31 N          -4.9057  -15.9716   25.9188 N.am    1  UNL1       -0.3043
     32 C          -6.2591  -15.4779   26.3368 C.2     1  UNL1        0.2229
     33 O          -6.5070  -15.0865   27.7634 O.2     1  UNL1       -0.2751
     34 C          -7.3645  -15.3756   25.3280 C.3     1  UNL1        0.0926
     35 H          -4.1802  -16.0387   26.5809 H       1  UNL1        0.1494
@<TRIPOS>BOND
     1    22    23    1
     2    23    24   ar
     3    24    21    1
     4    21    20    1
     5    20    19    1
     6    19     1    1
     7     1     2    1
     8     2     3    1
     9     3     4    1
    10     5     4    1
    11     5     6    1
    12     6     7    1
    13     7     9    1
    14     9    10   ar
    15    10    11   ar
    16    11    12   ar
    17    12    15    1
    18    15    16    1
    19    15    17    1
    20    15    18    1
    21    12    13   ar
    22    13    14   ar
    23     5     8    1
    24    24    25   ar
    25    25    26   ar
    26    26    27   ar
    27    27    28    1
    28    28    29    1
    29    29    30    1
    30    30    31    1
    31    31    32   am
    32    32    33    2
    33    32    34    1
    34    27    23   ar
    35    34    28    1
    36     8     2    1
    37     7     5    1
    38    14     9   ar
    39    31    35    1
@<TRIPOS>MOLECULE
*****
 35 39 0 0 0
SMALL
GASTEIGER

@<TRIPOS>ATOM
      1 C          -2.9442  -16.7326   23.1119 C.3     1  UNL1        0.0730
      2 N          -2.9856  -17.8955   22.1653 N.3     1  UNL1       -0.2726
      3 C          -1.7968  -18.6025   21.5847 C.3     1  UNL1        0.0721
      4 C          -2.2996  -19.6994   20.6937 C.3     1  UNL1        0.0190
      5 C          -3.7990  -19.6704   20.7236 C.3     1  UNL1        0.0201
      6 C          -3.9969  -20.8239   19.7853 C.3     1  UNL1        0.0061
      7 C          -5.1856  -20.1169   20.3659 C.3     1  UNL1        0.0237
      8 C          -4.2230  -18.5555   21.6331 C.3     1  UNL1        0.0724
      9 C          -6.6725  -19.9665   20.4945 C.ar    1  UNL1       -0.0225
     10 C          -7.3091  -19.9423   21.8525 C.ar    1  UNL1       -0.0043
     11 C          -8.7960  -19.7919   21.9812 C.ar    1  UNL1        0.0035
     12 C          -9.6462  -19.6657   20.7519 C.ar    1  UNL1        0.0714
     13 C          -9.0096  -19.6898   19.3939 C.ar    1  UNL1        0.0035
     14 C          -7.5227  -19.8402   19.2652 C.ar    1  UNL1       -0.0043
     15 C         -11.1331  -19.5153   20.8806 C.3     1  UNL1        0.4186
     16 F         -12.6200  -19.3649   21.0094 F       1  UNL1       -0.1659
     17 F         -11.1956  -18.9465   19.4941 F       1  UNL1       -0.1659
     18 F         -11.0706  -20.0840   22.2672 F       1  UNL1       -0.1659
     19 C          -3.9730  -16.6118   24.1968 C.3     1  UNL1        0.0294
     20 C          -4.9901  -15.5104   24.1467 C.3     1  UNL1        0.0666
     21 S          -6.0868  -15.4553   25.1684 S.3     1  UNL1       -0.0756
     22 C          -7.6760  -14.8224   22.3893 C.3     1  UNL1        0.1337
     23 N          -8.1965  -15.6360   23.5369 N.ar    1  UNL1       -0.2918
     24 C          -7.4661  -15.9269   24.8144 C.ar    1  UNL1        0.1930
     25 N          -8.3569  -16.7723   25.6756 N.ar    1  UNL1       -0.1224
     26 N          -9.6380  -17.0039   24.9304 N.ar    1  UNL1       -0.1328
     27 C          -9.5389  -16.3016   23.6086 C.ar    1  UNL1        0.1437
     28 C         -10.5964  -16.2705   22.5453 C.3     1  UNL1        0.0696
     29 C         -11.9965  -16.7020   22.8671 C.3     1  UNL1        0.0293
     30 C         -13.0540  -16.6708   21.8038 C.3     1  UNL1        0.0898
     31 N         -12.7114  -16.2081   20.4186 N.am    1  UNL1       -0.3043
     32 C         -11.3113  -15.7765   20.0969 C.2     1  UNL1        0.2229
     33 O         -10.9688  -15.3138   18.7118 O.2     1  UNL1       -0.2751
     34 C         -10.2538  -15.8077   21.1603 C.3     1  UNL1        0.0926
     35 H         -13.4055  -16.1876   19.7207 H       1  UNL1        0.1494
@<TRIPOS>BOND
     1    22    23    1
     2    23    24   ar
     3    24    21    1
     4    21    20    1
     5    20    19    1
     6    19     1    1
     7     1     2    1
     8     2     3    1
     9     3     4    1
    10     5     4    1
    11     5     6    1
    12     6     7    1
    13     7     9    1
    14     9    10   ar
    15    10    11   ar
    16    11    12   ar
    17    12    15    1
    18    15    16    1
    19    15    17    1
    20    15    18    1
    21    12    13   ar
    22    13    14   ar
    23     5     8    1
    24    24    25   ar
    25    25    26   ar
    26    26    27   ar
    27    27    28    1
    28    28    29    1
    29    29    30    1
    30    30    31    1
    31    31    32   am
    32    32    33    2
    33    32    34    1
    34    27    23   ar
    35    34    28    1
    36     8     2    1
    37     7     5    1
    38    14     9   ar
    39    31    35    1
@<TRIPOS>MOLECULE
*****
 35 39 0 0 0
SMALL
GASTEIGER

@<TRIPOS>ATOM
      1 C         -10.0027  -17.7889   19.7174 C.3     1  UNL1        0.0730
      2 N          -9.3604  -18.7355   20.6877 N.3     1  UNL1       -0.2726
      3 C         -10.0741  -19.7390   21.5443 C.3     1  UNL1        0.0721
      4 C          -9.0464  -20.4684   22.3576 C.3     1  UNL1        0.0190
      5 C          -7.6975  -19.9159   22.0038 C.3     1  UNL1        0.0201
      6 C          -6.9177  -20.7995   22.9317 C.3     1  UNL1        0.0061
      7 C          -6.2040  -19.7960   22.0751 C.3     1  UNL1        0.0237
      8 C          -7.8916  -18.8448   20.9717 C.3     1  UNL1        0.0724
      9 C          -4.9297  -19.1475   21.6218 C.ar    1  UNL1       -0.0225
     10 C          -4.5391  -19.1922   20.1742 C.ar    1  UNL1       -0.0043
     11 C          -3.2648  -18.5437   19.7208 C.ar    1  UNL1        0.0035
     12 C          -2.3811  -17.8505   20.7150 C.ar    1  UNL1        0.0714
     13 C          -2.7717  -17.8058   22.1626 C.ar    1  UNL1        0.0035
     14 C          -4.0460  -18.4543   22.6160 C.ar    1  UNL1       -0.0043
     15 C          -1.1068  -17.2020   20.2617 C.3     1  UNL1        0.4186
     16 F           0.1676  -16.5535   19.8083 F       1  UNL1       -0.1659
     17 F          -1.3523  -16.0609   21.2038 F       1  UNL1       -0.1659
     18 F          -0.8612  -18.3431   19.3196 F       1  UNL1       -0.1659
     19 C         -11.4944  -17.6321   19.6985 C.3     1  UNL1        0.0294
     20 C         -12.1622  -16.6932   20.6591 C.3     1  UNL1        0.0666
     21 S         -12.5148  -17.1592   22.0405 S.3     1  UNL1       -0.0756
     22 C          -9.7952  -15.3623   22.1974 C.3     1  UNL1        0.1337
     23 N         -10.2001  -16.4353   23.1643 N.ar    1  UNL1       -0.2918
     24 C         -11.4501  -17.2612   23.0922 C.ar    1  UNL1        0.1930
     25 N         -11.4486  -18.2071   24.2563 N.ar    1  UNL1       -0.1224
     26 N         -10.1976  -17.9658   25.0480 N.ar    1  UNL1       -0.1328
     27 C          -9.4259  -16.8708   24.3731 C.ar    1  UNL1        0.1437
     28 C          -8.1110  -16.3097   24.8272 C.3     1  UNL1        0.0696
     29 C          -7.8742  -16.0381   26.2833 C.3     1  UNL1        0.0293
     30 C          -6.5592  -15.4771   26.7374 C.3     1  UNL1        0.0898
     31 N          -5.4811  -15.1876   25.7354 N.am    1  UNL1       -0.3043
     32 C          -5.7180  -15.4592   24.2793 C.2     1  UNL1        0.2229
     33 O          -4.6398  -15.1698   23.2774 O.2     1  UNL1       -0.2751
     34 C          -7.0329  -16.0203   23.8252 C.3     1  UNL1        0.0926
     35 H          -4.6181  -14.8194   26.0334 H       1  UNL1        0.1494
@<TRIPOS>BOND
     1    22    23    1
     2    23    24   ar
     3    24    21    1
     4    21    20    1
     5    20    19    1
     6    19     1    1
     7     1     2    1
     8     2     3    1
     9     3     4    1
    10     5     4    1
    11     5     6    1
    12     6     7    1
    13     7     9    1
    14     9    10   ar
    15    10    11   ar
    16    11    12   ar
    17    12    15    1
    18    15    16    1
    19    15    17    1
    20    15    18    1
    21    12    13   ar
    22    13    14   ar
    23     5     8    1
    24    24    25   ar
    25    25    26   ar
    26    26    27   ar
    27    27    28    1
    28    28    29    1
    29    29    30    1
    30    30    31    1
    31    31    32   am
    32    32    33    2
    33    32    34    1
    34    27    23   ar
    35    34    28    1
    36     8     2    1
    37     7     5    1
    38    14     9   ar
    39    31    35    1
@<TRIPOS>MOLECULE
*****
 35 39 0 0 0
SMALL
GASTEIGER

@<TRIPOS>ATOM
      1 C          -3.5791  -20.7616   20.8626 C.3     1  UNL1        0.0730
      2 N          -2.9887  -19.3888   20.9919 N.3     1  UNL1       -0.2726
      3 C          -1.8090  -18.8610   20.2304 C.3     1  UNL1        0.0721
      4 C          -1.5656  -17.4487   20.6735 C.3     1  UNL1        0.0190
      5 C          -2.5948  -17.1037   21.7087 C.3     1  UNL1        0.0201
      6 C          -2.1152  -15.7024   21.9456 C.3     1  UNL1        0.0061
      7 C          -3.2948  -16.2301   22.7072 C.3     1  UNL1        0.0237
      8 C          -3.4743  -18.3028   21.9056 C.3     1  UNL1        0.0724
      9 C          -4.3800  -16.0305   23.7232 C.ar    1  UNL1       -0.0225
     10 C          -4.2294  -16.5992   25.1031 C.ar    1  UNL1       -0.0043
     11 C          -5.3146  -16.3996   26.1191 C.ar    1  UNL1        0.0035
     12 C          -6.5505  -15.6313   25.7554 C.ar    1  UNL1        0.0714
     13 C          -6.7011  -15.0626   24.3755 C.ar    1  UNL1        0.0035
     14 C          -5.6159  -15.2622   23.3595 C.ar    1  UNL1       -0.0043
     15 C          -7.6357  -15.4317   26.7714 C.3     1  UNL1        0.4186
     16 F          -8.7210  -15.2321   27.7876 F       1  UNL1       -0.1659
     17 F          -8.6300  -16.0435   25.8296 F       1  UNL1       -0.1659
     18 F          -6.6414  -14.8200   27.7132 F       1  UNL1       -0.1659
     19 C          -4.6071  -21.0394   19.8062 C.3     1  UNL1        0.0294
     20 C          -6.0629  -20.8341   20.1038 C.3     1  UNL1        0.0666
     21 S          -6.6742  -19.4726   19.9542 S.3     1  UNL1       -0.0756
     22 C          -9.8993  -18.9832   19.8580 C.3     1  UNL1        0.1337
     23 N          -8.9951  -18.6766   21.0149 N.ar    1  UNL1       -0.2918
     24 C          -7.5127  -18.9015   21.0592 C.ar    1  UNL1        0.1930
     25 N          -7.0159  -18.4551   22.4023 N.ar    1  UNL1       -0.1224
     26 N          -8.1913  -17.9543   23.1882 N.ar    1  UNL1       -0.1328
     27 C          -9.4145  -18.0911   22.3308 C.ar    1  UNL1        0.1437
     28 C         -10.8118  -17.7095   22.7208 C.3     1  UNL1        0.0696
     29 C         -11.4800  -16.5377   22.0648 C.3     1  UNL1        0.0293
     30 C         -12.8773  -16.1561   22.4548 C.3     1  UNL1        0.0898
     31 N         -13.6063  -16.9465   23.5008 N.am    1  UNL1       -0.3043
     32 C         -12.9380  -18.1183   24.1567 C.2     1  UNL1        0.2229
     33 O         -13.6671  -18.9085   25.2027 O.2     1  UNL1       -0.2751
     34 C         -11.5407  -18.4998   23.7667 C.3     1  UNL1        0.0926
     35 H         -14.5233  -16.6961   23.7568 H       1  UNL1        0.1494
@<TRIPOS>BOND
     1    22    23    1
     2    23    24   ar
     3    24    21    1
     4    21    20    1
     5    20    19    1
     6    19     1    1
     7     1     2    1
     8     2     3    1
     9     3     4    1
    10     5     4    1
    11     5     6    1
    12     6     7    1
    13     7     9    1
    14     9    10   ar
    15    10    11   ar
    16    11    12   ar
    17    12    15    1
    18    15    16    1
    19    15    17    1
    20    15    18    1
    21    12    13   ar
    22    13    14   ar
    23     5     8    1
    24    24    25   ar
    25    25    26   ar
    26    26    27   ar
    27    27    28    1
    28    28    29    1
    29    29    30    1
    30    30    31    1
    31    31    32   am
    32    32    33    2
    33    32    34    1
    34    27    23   ar
    35    34    28    1
    36     8     2    1
    37     7     5    1
    38    14     9   ar
    39    31    35    1
@<TRIPOS>MOLECULE
*****
 35 39 0 0 0
SMALL
GASTEIGER

@<TRIPOS>ATOM
      1 C         -13.0272  -17.3571   21.2196 C.3     1  UNL1        0.0730
      2 N         -11.8999  -16.4731   20.7749 N.3     1  UNL1       -0.2726
      3 C         -11.7735  -15.8128   19.4340 C.3     1  UNL1        0.0721
      4 C         -10.4966  -15.0258   19.4234 C.3     1  UNL1        0.0190
      5 C          -9.8338  -15.1996   20.7578 C.3     1  UNL1        0.0201
      6 C          -8.6435  -14.3386   20.4550 C.3     1  UNL1        0.0061
      7 C          -8.7699  -14.9989   21.7959 C.3     1  UNL1        0.0237
      8 C         -10.7011  -16.0941   21.5930 C.3     1  UNL1        0.0724
      9 C          -8.2286  -15.2643   23.1695 C.ar    1  UNL1       -0.0225
     10 C          -6.7599  -15.1195   23.4377 C.ar    1  UNL1       -0.0043
     11 C          -6.2186  -15.3849   24.8112 C.ar    1  UNL1        0.0035
     12 C          -7.1461  -15.7949   25.9165 C.ar    1  UNL1        0.0714
     13 C          -8.6148  -15.9397   25.6483 C.ar    1  UNL1        0.0035
     14 C          -9.1561  -15.6743   24.2747 C.ar    1  UNL1       -0.0043
     15 C          -6.6048  -16.0603   27.2900 C.3     1  UNL1        0.4186
     16 F          -6.0635  -16.3256   28.6636 F       1  UNL1       -0.1659
     17 F          -8.0029  -16.2151   27.8111 F       1  UNL1       -0.1659
     18 F          -5.2068  -15.9054   26.7690 F       1  UNL1       -0.1659
     19 C         -12.9415  -18.0788   22.5317 C.3     1  UNL1        0.0294
     20 C         -11.8159  -19.0363   22.7891 C.3     1  UNL1        0.0666
     21 S         -11.2630  -19.8631   21.6663 S.3     1  UNL1       -0.0756
     22 C          -8.4327  -20.2089   23.2535 C.3     1  UNL1        0.1337
     23 N          -8.5996  -19.7225   21.8444 N.ar    1  UNL1       -0.2918
     24 C          -9.9006  -19.5635   21.1149 C.ar    1  UNL1        0.1930
     25 N          -9.6000  -19.0525   19.7370 N.ar    1  UNL1       -0.1224
     26 N          -8.1132  -18.8956   19.6150 N.ar    1  UNL1       -0.1328
     27 C          -7.4949  -19.3097   20.9174 C.ar    1  UNL1        0.1437
     28 C          -6.0293  -19.3107   21.2368 C.3     1  UNL1        0.0696
     29 C          -5.0719  -20.0659   20.3633 C.3     1  UNL1        0.0293
     30 C          -3.6063  -20.0670   20.6826 C.3     1  UNL1        0.0898
     31 N          -3.0981  -19.3128   21.8756 N.am    1  UNL1       -0.3043
     32 C          -4.0555  -18.5576   22.7491 C.2     1  UNL1        0.2229
     33 O          -3.5473  -17.8034   23.9420 O.2     1  UNL1       -0.2751
     34 C          -5.5212  -18.5566   22.4297 C.3     1  UNL1        0.0926
     35 H          -2.1362  -19.3135   22.0852 H       1  UNL1        0.1494
@<TRIPOS>BOND
     1    22    23    1
     2    23    24   ar
     3    24    21    1
     4    21    20    1
     5    20    19    1
     6    19     1    1
     7     1     2    1
     8     2     3    1
     9     3     4    1
    10     5     4    1
    11     5     6    1
    12     6     7    1
    13     7     9    1
    14     9    10   ar
    15    10    11   ar
    16    11    12   ar
    17    12    15    1
    18    15    16    1
    19    15    17    1
    20    15    18    1
    21    12    13   ar
    22    13    14   ar
    23     5     8    1
    24    24    25   ar
    25    25    26   ar
    26    26    27   ar
    27    27    28    1
    28    28    29    1
    29    29    30    1
    30    30    31    1
    31    31    32   am
    32    32    33    2
    33    32    34    1
    34    27    23   ar
    35    34    28    1
    36     8     2    1
    37     7     5    1
    38    14     9   ar
    39    31    35    1
@<TRIPOS>MOLECULE
*****
 35 39 0 0 0
SMALL
GASTEIGER

@<TRIPOS>ATOM
      1 C          -9.6829  -19.3065   19.4365 C.3     1  UNL1        0.0730
      2 N         -10.5472  -18.4129   20.2759 N.3     1  UNL1       -0.2726
      3 C         -12.0213  -18.1962   20.1030 C.3     1  UNL1        0.0721
      4 C         -12.4742  -17.2284   21.1557 C.3     1  UNL1        0.0190
      5 C         -11.2799  -16.8470   21.9792 C.3     1  UNL1        0.0201
      6 C         -12.0145  -15.9183   22.9001 C.3     1  UNL1        0.0061
      7 C         -10.5404  -16.1350   23.0730 C.3     1  UNL1        0.0237
      8 C         -10.0889  -17.5790   21.4354 C.3     1  UNL1        0.0724
      9 C          -9.2623  -15.8490   23.8042 C.ar    1  UNL1       -0.0225
     10 C          -9.2128  -15.9594   25.2993 C.ar    1  UNL1       -0.0043
     11 C          -7.9347  -15.6734   26.0306 C.ar    1  UNL1        0.0035
     12 C          -6.7062  -15.2771   25.2667 C.ar    1  UNL1        0.0714
     13 C          -6.7557  -15.1667   23.7716 C.ar    1  UNL1        0.0035
     14 C          -8.0337  -15.4526   23.0403 C.ar    1  UNL1       -0.0043
     15 C          -5.4281  -14.9911   25.9979 C.3     1  UNL1        0.4186
     16 F          -4.1499  -14.7051   26.7292 F       1  UNL1       -0.1659
     17 F          -6.1878  -14.8938   27.2876 F       1  UNL1       -0.1659
     18 F          -4.6684  -15.0884   24.7082 F       1  UNL1       -0.1659
     19 C          -8.4387  -19.9089   20.0187 C.3     1  UNL1        0.0294
     20 C          -8.2901  -20.0322   21.5062 C.3     1  UNL1        0.0666
     21 S          -6.9596  -20.3884   22.1001 S.3     1  UNL1       -0.0756
     22 C          -4.6043  -20.7030   19.8633 C.3     1  UNL1        0.1337
     23 N          -4.7048  -19.6147   20.8907 N.ar    1  UNL1       -0.2918
     24 C          -5.7874  -19.4701   21.9189 C.ar    1  UNL1        0.1930
     25 N          -5.4921  -18.2461   22.7340 N.ar    1  UNL1       -0.1224
     26 N          -4.2270  -17.6341   22.2096 N.ar    1  UNL1       -0.1328
     27 C          -3.7404  -18.4800   21.0704 C.ar    1  UNL1        0.1437
     28 C          -2.5061  -18.2342   20.2542 C.3     1  UNL1        0.0696
     29 C          -2.6217  -17.9561   18.7847 C.3     1  UNL1        0.0293
     30 C          -1.3874  -17.7104   17.9685 C.3     1  UNL1        0.0898
     31 N          -0.0375  -17.7427   18.6219 N.am    1  UNL1       -0.3043
     32 C           0.0781  -18.0208   20.0914 C.2     1  UNL1        0.2229
     33 O           1.4280  -18.0531   20.7446 O.2     1  UNL1       -0.2751
     34 C          -1.1563  -18.2666   20.9075 C.3     1  UNL1        0.0926
     35 H           0.7726  -17.5815   18.0863 H       1  UNL1        0.1494
@<TRIPOS>BOND
     1    22    23    1
     2    23    24   ar
     3    24    21    1
     4    21    20    1
     5    20    19    1
     6    19     1    1
     7     1     2    1
     8     2     3    1
     9     3     4    1
    10     5     4    1
    11     5     6    1
    12     6     7    1
    13     7     9    1
    14     9    10   ar
    15    10    11   ar
    16    11    12   ar
    17    12    15    1
    18    15    16    1
    19    15    17    1
    20    15    18    1
    21    12    13   ar
    22    13    14   ar
    23     5     8    1
    24    24    25   ar
    25    25    26   ar
    26    26    27   ar
    27    27    28    1
    28    28    29    1
    29    29    30    1
    30    30    31    1
    31    31    32   am
    32    32    33    2
    33    32    34    1
    34    27    23   ar
    35    34    28    1
    36     8     2    1
    37     7     5    1
    38    14     9   ar
    39    31    35    1
@<TRIPOS>MOLECULE
*****
 35 39 0 0 0
SMALL
GASTEIGER

@<TRIPOS>ATOM
      1 C         -18.9559   -6.1006   17.8768 C.3     1  UNL1        0.0730
      2 N         -18.2137   -7.4011   17.9659 N.3     1  UNL1       -0.2726
      3 C         -18.8310   -8.7604   18.1117 C.3     1  UNL1        0.0721
      4 C         -17.7227   -9.7699   18.1607 C.3     1  UNL1        0.0190
      5 C         -16.4204   -9.0346   18.0452 C.3     1  UNL1        0.0201
      6 C         -15.5461  -10.2510   18.1217 C.3     1  UNL1        0.0061
      7 C         -14.9288   -8.8918   17.9759 C.3     1  UNL1        0.0237
      8 C         -16.7239   -7.5706   17.9247 C.3     1  UNL1        0.0724
      9 C         -13.7113   -8.0245   17.8516 C.ar    1  UNL1       -0.0225
     10 C         -13.2839   -7.1624   19.0024 C.ar    1  UNL1       -0.0043
     11 C         -12.0664   -6.2952   18.8781 C.ar    1  UNL1        0.0035
     12 C         -11.2762   -6.2900   17.6031 C.ar    1  UNL1        0.0714
     13 C         -11.7035   -7.1521   16.4524 C.ar    1  UNL1        0.0035
     14 C         -12.9211   -8.0194   16.5766 C.ar    1  UNL1       -0.0043
     15 C         -10.0587   -5.4228   17.4789 C.3     1  UNL1        0.4186
     16 F          -8.8410   -4.5555   17.3547 F       1  UNL1       -0.1659
     17 F         -10.3637   -5.2026   16.0269 F       1  UNL1       -0.1659
     18 F          -9.7537   -5.6430   18.9310 F       1  UNL1       -0.1659
     19 C         -18.1982   -4.8087   17.7944 C.3     1  UNL1        0.0294
     20 C         -18.7153   -3.5895   18.4987 C.3     1  UNL1        0.0666
     21 S         -17.9331   -2.9875   19.6282 S.3     1  UNL1       -0.0756
     22 C         -16.2023   -1.0592   17.6444 C.3     1  UNL1        0.1337
     23 N         -15.6412   -2.0318   18.6390 N.ar    1  UNL1       -0.2918
     24 C         -16.4367   -2.9182   19.5508 C.ar    1  UNL1        0.1930
     25 N         -15.4732   -3.7230   20.3717 N.ar    1  UNL1       -0.1224
     26 N         -14.0821   -3.3341   19.9672 N.ar    1  UNL1       -0.1328
     27 C         -14.1859   -2.2889   18.8963 C.ar    1  UNL1        0.1437
     28 C         -13.0362   -1.6185   18.2043 C.3     1  UNL1        0.0696
     29 C         -11.9452   -2.4448   17.5905 C.3     1  UNL1        0.0293
     30 C         -10.7956   -1.7744   16.8984 C.3     1  UNL1        0.0898
     31 N         -10.7371   -0.2775   16.8203 N.am    1  UNL1       -0.3043
     32 C         -11.8281    0.5488   17.4341 C.2     1  UNL1        0.2229
     33 O         -11.7695    2.0456   17.3559 O.2     1  UNL1       -0.2751
     34 C         -12.9777   -0.1217   18.1261 C.3     1  UNL1        0.0926
     35 H          -9.9825    0.1625   16.3661 H       1  UNL1        0.1494
@<TRIPOS>BOND
     1    22    23    1
     2    23    24   ar
     3    24    21    1
     4    21    20    1
     5    20    19    1
     6    19     1    1
     7     1     2    1
     8     2     3    1
     9     3     4    1
    10     5     4    1
    11     5     6    1
    12     6     7    1
    13     7     9    1
    14     9    10   ar
    15    10    11   ar
    16    11    12   ar
    17    12    15    1
    18    15    16    1
    19    15    17    1
    20    15    18    1
    21    12    13   ar
    22    13    14   ar
    23     5     8    1
    24    24    25   ar
    25    25    26   ar
    26    26    27   ar
    27    27    28    1
    28    28    29    1
    29    29    30    1
    30    30    31    1
    31    31    32   am
    32    32    33    2
    33    32    34    1
    34    27    23   ar
    35    34    28    1
    36     8     2    1
    37     7     5    1
    38    14     9   ar
    39    31    35    1
@<TRIPOS>MOLECULE
*****
 35 39 0 0 0
SMALL
GASTEIGER

@<TRIPOS>ATOM
      1 C           3.6307    0.0524   26.8373 C.3     1  UNL1        0.0730
      2 N           2.4385    0.6494   26.1502 N.3     1  UNL1       -0.2726
      3 C           1.2182    1.2032   26.8241 C.3     1  UNL1        0.0721
      4 C           0.2828    1.6935   25.7589 C.3     1  UNL1        0.0190
      5 C           0.9250    1.4428   24.4267 C.3     1  UNL1        0.0201
      6 C          -0.1936    2.0103   23.6041 C.3     1  UNL1        0.0061
      7 C           1.0267    1.4565   22.9302 C.3     1  UNL1        0.0237
      8 C           2.2573    0.7975   24.6686 C.3     1  UNL1        0.0724
      9 C           1.7900    1.1448   21.6772 C.ar    1  UNL1       -0.0225
     10 C           2.8149    2.1119   21.1630 C.ar    1  UNL1       -0.0043
     11 C           3.5782    1.8002   19.9100 C.ar    1  UNL1        0.0035
     12 C           3.3167    0.5212   19.1711 C.ar    1  UNL1        0.0714
     13 C           2.2918   -0.4459   19.6853 C.ar    1  UNL1        0.0035
     14 C           1.5285   -0.1341   20.9383 C.ar    1  UNL1       -0.0043
     15 C           4.0800    0.2095   17.9181 C.3     1  UNL1        0.4186
     16 F           4.8434   -0.1023   16.6650 F       1  UNL1       -0.1659
     17 F           2.8441   -0.3886   17.3141 F       1  UNL1       -0.1659
     18 F           5.3158    0.8076   18.5221 F       1  UNL1       -0.1659
     19 C           3.8962   -1.4203   26.7343 C.3     1  UNL1        0.0294
     20 C           5.2891   -1.9461   26.9178 C.3     1  UNL1        0.0666
     21 S           6.3135   -1.7481   25.8402 S.3     1  UNL1       -0.0756
     22 C           5.1148   -0.8163   22.9515 C.3     1  UNL1        0.1337
     23 N           5.7126   -2.1552   23.2676 N.ar    1  UNL1       -0.2918
     24 C           6.2635   -2.5835   24.5953 C.ar    1  UNL1        0.1930
     25 N           6.7558   -3.9940   24.4598 N.ar    1  UNL1       -0.1224
     26 N           6.5091   -4.4374   23.0482 N.ar    1  UNL1       -0.1328
     27 C           5.8643   -3.3010   22.3113 C.ar    1  UNL1        0.1437
     28 C           5.4449   -3.3090   20.8712 C.3     1  UNL1        0.0696
     29 C           4.0953   -3.8382   20.4859 C.3     1  UNL1        0.0293
     30 C           3.6759   -3.8462   19.0458 C.3     1  UNL1        0.0898
     31 N           4.6063   -3.3249   17.9909 N.am    1  UNL1       -0.3043
     32 C           5.9559   -2.7957   18.3761 C.2     1  UNL1        0.2229
     33 O           6.8862   -2.2744   17.3212 O.2     1  UNL1       -0.2751
     34 C           6.3752   -2.7877   19.8163 C.3     1  UNL1        0.0926
     35 H           4.3311   -3.3301   17.0456 H       1  UNL1        0.1494
@<TRIPOS>BOND
     1    22    23    1
     2    23    24   ar
     3    24    21    1
     4    21    20    1
     5    20    19    1
     6    19     1    1
     7     1     2    1
     8     2     3    1
     9     3     4    1
    10     5     4    1
    11     5     6    1
    12     6     7    1
    13     7     9    1
    14     9    10   ar
    15    10    11   ar
    16    11    12   ar
    17    12    15    1
    18    15    16    1
    19    15    17    1
    20    15    18    1
    21    12    13   ar
    22    13    14   ar
    23     5     8    1
    24    24    25   ar
    25    25    26   ar
    26    26    27   ar
    27    27    28    1
    28    28    29    1
    29    29    30    1
    30    30    31    1
    31    31    32   am
    32    32    33    2
    33    32    34    1
    34    27    23   ar
    35    34    28    1
    36     8     2    1
    37     7     5    1
    38    14     9   ar
    39    31    35    1
