@<TRIPOS>MOLECULE
*****
 40 43 0 0 0
SMALL
GASTEIGER

@<TRIPOS>ATOM
      1 N           1.4911    1.5310   27.2436 N.3     1  UNL1       -0.2651
      2 C           1.2833    1.5394   25.7582 C.3     1  UNL1        0.0726
      3 C           2.4069    1.1559   24.8414 C.3     1  UNL1        0.0204
      4 C           3.7383    0.7639   25.4102 C.3     1  UNL1        0.0368
      5 C           3.9462    0.7555   26.8957 C.3     1  UNL1        0.0903
      6 C           2.8225    1.1390   27.8124 C.3     1  UNL1        0.0923
      7 N           5.2777    0.3635   27.4645 N.am    1  UNL1       -0.2889
      8 C           5.5063   -1.0408   27.9394 C.2     1  UNL1        0.3059
      9 O           4.4034   -2.0532   27.8456 O.2     1  UNL1       -0.2524
     10 N           6.8378   -1.4328   28.5083 N.am    1  UNL1       -0.2485
     11 H           6.0015    1.0279   27.5261 H       1  UNL1        0.1510
     12 H           7.5616   -0.7684   28.5699 H       1  UNL1        0.1583
     13 C           7.0664   -2.8372   28.9832 C.ar    1  UNL1        0.1664
     14 N           6.6887   -3.3858   30.3272 N.ar    1  UNL1       -0.2282
     15 C           7.1017   -4.8271   30.3722 C.ar    1  UNL1        0.0701
     16 C           6.9146   -5.7621   31.5301 C.3     1  UNL1        0.0528
     17 C           7.7347   -5.1693   29.0560 C.ar    1  UNL1        0.0803
     18 S           7.7128   -3.9394   28.1976 S.2     1  UNL1       -0.0488
     19 C           8.2916   -6.5065   28.6666 C.2     1  UNL1        0.1807
     20 C           9.4557   -7.0816   29.4178 C.3     1  UNL1        0.0779
     21 O           7.6845   -7.2686   27.5262 O.2     1  UNL1       -0.2908
     22 C           0.3675    1.9146   28.1604 C.3     1  UNL1        0.1376
     23 C          -0.8868   -0.2973   28.6939 C.3     1  UNL1        0.0738
     24 C          -0.1552    0.9263   29.1604 C.2     1  UNL1        0.1672
     25 O           0.0537    1.1616   30.6271 O.2     1  UNL1       -0.2946
     26 C           4.8619    0.3803   24.4935 C.3     1  UNL1        0.0738
     27 N           4.8121   -0.9214   23.7498 N.3     1  UNL1       -0.2726
     28 C           5.3646   -2.1661   24.3787 C.3     1  UNL1        0.0721
     29 C           5.3147   -3.4678   23.6350 C.3     1  UNL1        0.0174
     30 C           4.7124   -3.5248   22.2624 C.3     1  UNL1        0.0031
     31 C           4.1599   -2.2801   21.6335 C.3     1  UNL1        0.0204
     32 C           4.2097   -0.9784   22.3772 C.3     1  UNL1        0.0724
     33 C           3.5576   -2.3371   20.2609 C.3     1  UNL1        0.0277
     34 C           2.7836   -1.1661   19.7323 C.ar    1  UNL1       -0.0220
     35 C           3.3933   -0.2709   18.6945 C.ar    1  UNL1       -0.0020
     36 C           2.6194    0.9002   18.1658 C.ar    1  UNL1        0.0293
     37 C           1.2357    1.1762   18.6750 C.ar    1  UNL1        0.1401
     38 F           0.4617    2.3473   18.1464 F       1  UNL1       -0.2042
     39 C           0.6260    0.2811   19.7128 C.ar    1  UNL1        0.0293
     40 C           1.3999   -0.8901   20.2415 C.ar    1  UNL1       -0.0020
@<TRIPOS>BOND
     1    23    24    1
     2    24    25    2
     3    24    22    1
     4    22     1    1
     5     1     2    1
     6     2     3    1
     7     3     4    1
     8     4    26    1
     9    26    27    1
    10    27    28    1
    11    28    29    1
    12    29    30    1
    13    30    31    1
    14    31    33    1
    15    33    34    1
    16    34    35   ar
    17    35    36   ar
    18    36    37   ar
    19    37    38    1
    20    37    39   ar
    21    39    40   ar
    22    31    32    1
    23     4     5    1
    24     5     7    1
    25     7     8   am
    26     8     9    2
    27     8    10   am
    28    10    13    1
    29    13    14   ar
    30    14    15   ar
    31    15    16    1
    32    15    17   ar
    33    17    19    1
    34    19    20    1
    35    19    21    2
    36    17    18   ar
    37     5     6    1
    38     6     1    1
    39    32    27    1
    40    18    13   ar
    41    40    34   ar
    42     7    11    1
    43    10    12    1
@<TRIPOS>MOLECULE
*****
 40 43 0 0 0
SMALL
GASTEIGER

@<TRIPOS>ATOM
      1 N           2.8254    2.3622   37.8067 N.3     1  UNL1       -0.2651
      2 C           3.8179    1.3150   38.2170 C.3     1  UNL1        0.0726
      3 C           4.8640    0.8521   37.2468 C.3     1  UNL1        0.0204
      4 C           4.9177    1.4364   35.8663 C.3     1  UNL1        0.0368
      5 C           3.9251    2.4836   35.4561 C.3     1  UNL1        0.0903
      6 C           2.8790    2.9465   36.4263 C.3     1  UNL1        0.0923
      7 N           3.9787    3.0679   34.0755 N.am    1  UNL1       -0.2889
      8 C           3.2861    2.3743   32.9401 C.2     1  UNL1        0.3059
      9 O           2.5399    1.0964   33.1852 O.2     1  UNL1       -0.2524
     10 N           3.3397    2.9586   31.5596 N.am    1  UNL1       -0.2485
     11 H           4.4685    3.9066   33.9147 H       1  UNL1        0.1510
     12 H           3.8295    3.7974   31.3988 H       1  UNL1        0.1583
     13 C           2.6471    2.2650   30.4242 C.ar    1  UNL1        0.1664
     14 N           3.3163    1.5773   29.2714 N.ar    1  UNL1       -0.2282
     15 C           2.2465    1.0246   28.3770 C.ar    1  UNL1        0.0701
     16 C           2.4681    0.2600   27.1056 C.3     1  UNL1        0.0528
     17 C           0.9160    1.3708   28.9771 C.ar    1  UNL1        0.0803
     18 S           1.1636    2.1374   30.2423 S.2     1  UNL1       -0.0488
     19 C          -0.4264    1.0131   28.4112 C.2     1  UNL1        0.1807
     20 C          -1.0394   -0.3205   28.7204 C.3     1  UNL1        0.0779
     21 O          -1.1557    1.9891   27.5362 O.2     1  UNL1       -0.2908
     22 C           1.7793    2.8251   38.7770 C.3     1  UNL1        0.1376
     23 C           0.8964    0.4250   39.2353 C.3     1  UNL1        0.0738
     24 C           1.1133    1.8381   39.6893 C.2     1  UNL1        0.1672
     25 O           0.6641    2.2643   41.0556 O.2     1  UNL1       -0.2946
     26 C           5.9638    0.9735   34.8961 C.3     1  UNL1        0.0738
     27 N           5.7763   -0.3131   34.1482 N.3     1  UNL1       -0.2726
     28 C           4.5525   -1.1474   34.3860 C.3     1  UNL1        0.0721
     29 C           4.3649   -2.4340   33.6381 C.3     1  UNL1        0.0174
     30 C           5.4012   -2.8865   32.6524 C.3     1  UNL1        0.0031
     31 C           6.6249   -2.0523   32.4146 C.3     1  UNL1        0.0204
     32 C           6.8125   -0.7656   33.1625 C.3     1  UNL1        0.0724
     33 C           7.6611   -2.5048   31.4290 C.3     1  UNL1        0.0277
     34 C           7.2786   -3.4249   30.3078 C.ar    1  UNL1       -0.0220
     35 C           7.5739   -4.8922   30.4078 C.ar    1  UNL1       -0.0020
     36 C           7.1914   -5.8123   29.2867 C.ar    1  UNL1        0.0293
     37 C           6.5135   -5.2653   28.0656 C.ar    1  UNL1        0.1401
     38 F           6.1309   -6.1854   26.9444 F       1  UNL1       -0.2042
     39 C           6.2181   -3.7981   27.9655 C.ar    1  UNL1        0.0293
     40 C           6.6007   -2.8778   29.0867 C.ar    1  UNL1       -0.0020
@<TRIPOS>BOND
     1    23    24    1
     2    24    25    2
     3    24    22    1
     4    22     1    1
     5     1     2    1
     6     2     3    1
     7     3     4    1
     8     4    26    1
     9    26    27    1
    10    27    28    1
    11    28    29    1
    12    29    30    1
    13    30    31    1
    14    31    33    1
    15    33    34    1
    16    34    35   ar
    17    35    36   ar
    18    36    37   ar
    19    37    38    1
    20    37    39   ar
    21    39    40   ar
    22    31    32    1
    23     4     5    1
    24     5     7    1
    25     7     8   am
    26     8     9    2
    27     8    10   am
    28    10    13    1
    29    13    14   ar
    30    14    15   ar
    31    15    16    1
    32    15    17   ar
    33    17    19    1
    34    19    20    1
    35    19    21    2
    36    17    18   ar
    37     5     6    1
    38     6     1    1
    39    32    27    1
    40    18    13   ar
    41    40    34   ar
    42     7    11    1
    43    10    12    1
@<TRIPOS>MOLECULE
*****
 40 43 0 0 0
SMALL
GASTEIGER

@<TRIPOS>ATOM
      1 N          -6.9092    6.0357   24.9280 N.3     1  UNL1       -0.2651
      2 C          -7.7478    5.2537   23.9610 C.3     1  UNL1        0.0726
      3 C          -7.1059    4.2399   23.0608 C.3     1  UNL1        0.0204
      4 C          -5.6255    4.0081   23.1278 C.3     1  UNL1        0.0368
      5 C          -4.7869    4.7901   24.0948 C.3     1  UNL1        0.0903
      6 C          -5.4288    5.8038   24.9950 C.3     1  UNL1        0.0923
      7 N          -3.3064    4.5582   24.1618 N.am    1  UNL1       -0.2889
      8 C          -2.7006    3.9261   25.3797 C.2     1  UNL1        0.3059
      9 O          -3.5752    3.5257   26.5307 O.2     1  UNL1       -0.2524
     10 N          -1.2201    3.6943   25.4467 N.am    1  UNL1       -0.2485
     11 H          -2.7324    4.8210   23.4064 H       1  UNL1        0.1510
     12 H          -0.6460    3.9571   24.6913 H       1  UNL1        0.1583
     13 C          -0.6143    3.0621   26.6646 C.ar    1  UNL1        0.1664
     14 N           0.0714    3.7861   27.7851 N.ar    1  UNL1       -0.2282
     15 C           0.5217    2.7664   28.7889 C.ar    1  UNL1        0.0701
     16 C           1.2513    3.0510   30.0683 C.3     1  UNL1        0.0528
     17 C           0.1143    1.4122   28.2887 C.ar    1  UNL1        0.0803
     18 S          -0.5878    1.5950   26.9758 S.2     1  UNL1       -0.0488
     19 C           0.3649    0.1048   28.9800 C.2     1  UNL1        0.1807
     20 C           1.7567   -0.4498   29.0538 C.3     1  UNL1        0.0779
     21 O          -0.7762   -0.6480   29.5975 O.2     1  UNL1       -0.2908
     22 C          -7.5511    7.0495   25.8282 C.3     1  UNL1        0.1376
     23 C          -6.2125    7.7108   27.9544 C.3     1  UNL1        0.0738
     24 C          -7.3479    6.9702   27.3122 C.2     1  UNL1        0.1672
     25 O          -8.2801    6.1502   28.1541 O.2     1  UNL1       -0.2946
     26 C          -4.9837    2.9943   22.2276 C.3     1  UNL1        0.0738
     27 N          -4.2811    3.4381   20.9789 N.3     1  UNL1       -0.2726
     28 C          -5.0734    3.9686   19.8208 C.3     1  UNL1        0.0721
     29 C          -4.3709    4.4125   18.5721 C.3     1  UNL1        0.0174
     30 C          -2.8761    4.3259   18.4813 C.3     1  UNL1        0.0031
     31 C          -2.0839    3.7954   19.6393 C.3     1  UNL1        0.0204
     32 C          -2.7864    3.3515   20.8881 C.3     1  UNL1        0.0724
     33 C          -0.5891    3.7088   19.5485 C.3     1  UNL1        0.0277
     34 C           0.0904    2.3735   19.6191 C.ar    1  UNL1       -0.0220
     35 C           0.8020    1.8295   18.4158 C.ar    1  UNL1       -0.0020
     36 C           1.4816    0.4942   18.4865 C.ar    1  UNL1        0.0293
     37 C           1.4496   -0.2973   19.7603 C.ar    1  UNL1        0.1401
     38 F           2.1292   -1.6326   19.8309 F       1  UNL1       -0.2042
     39 C           0.7380    0.2467   20.9635 C.ar    1  UNL1        0.0293
     40 C           0.0584    1.5821   20.8929 C.ar    1  UNL1       -0.0020
@<TRIPOS>BOND
     1    23    24    1
     2    24    25    2
     3    24    22    1
     4    22     1    1
     5     1     2    1
     6     2     3    1
     7     3     4    1
     8     4    26    1
     9    26    27    1
    10    27    28    1
    11    28    29    1
    12    29    30    1
    13    30    31    1
    14    31    33    1
    15    33    34    1
    16    34    35   ar
    17    35    36   ar
    18    36    37   ar
    19    37    38    1
    20    37    39   ar
    21    39    40   ar
    22    31    32    1
    23     4     5    1
    24     5     7    1
    25     7     8   am
    26     8     9    2
    27     8    10   am
    28    10    13    1
    29    13    14   ar
    30    14    15   ar
    31    15    16    1
    32    15    17   ar
    33    17    19    1
    34    19    20    1
    35    19    21    2
    36    17    18   ar
    37     5     6    1
    38     6     1    1
    39    32    27    1
    40    18    13   ar
    41    40    34   ar
    42     7    11    1
    43    10    12    1
@<TRIPOS>MOLECULE
*****
 40 43 0 0 0
SMALL
GASTEIGER

@<TRIPOS>ATOM
      1 N           2.2555    0.6280   28.2092 N.3     1  UNL1       -0.2651
      2 C           3.1647    1.4162   29.1047 C.3     1  UNL1        0.0726
      3 C           4.6046    1.0209   29.2470 C.3     1  UNL1        0.0204
      4 C           5.1354   -0.1627   28.4938 C.3     1  UNL1        0.0368
      5 C           4.2262   -0.9509   27.5982 C.3     1  UNL1        0.0903
      6 C           2.7862   -0.5556   27.4560 C.3     1  UNL1        0.0923
      7 N           4.7569   -2.1346   26.8449 N.am    1  UNL1       -0.2889
      8 C           4.9485   -2.0537   25.3595 C.2     1  UNL1        0.3059
      9 O           4.6094   -0.7893   24.6272 O.2     1  UNL1       -0.2524
     10 N           5.4792   -3.2374   24.6062 N.am    1  UNL1       -0.2485
     11 H           4.9795   -2.9645   27.3255 H       1  UNL1        0.1510
     12 H           5.7018   -4.0673   25.0867 H       1  UNL1        0.1583
     13 C           5.6708   -3.1565   23.1207 C.ar    1  UNL1        0.1664
     14 N           6.9064   -2.6807   22.4157 N.ar    1  UNL1       -0.2282
     15 C           6.6597   -2.7674   20.9387 C.ar    1  UNL1        0.0701
     16 C           7.6306   -2.3909   19.8590 C.3     1  UNL1        0.0528
     17 C           5.2717   -3.2969   20.7308 C.ar    1  UNL1        0.0803
     18 S           4.6606   -3.5373   22.0793 S.2     1  UNL1       -0.0488
     19 C           4.6109   -3.5426   19.4068 C.2     1  UNL1        0.1807
     20 C           4.2798   -4.9427   18.9823 C.3     1  UNL1        0.0779
     21 O           4.2812   -2.3884   18.5073 O.2     1  UNL1       -0.2908
     22 C           0.8155    1.0234   28.0669 C.3     1  UNL1        0.1376
     23 C          -1.3416   -0.2631   28.7314 C.3     1  UNL1        0.0738
     24 C          -0.1820    0.6105   29.1083 C.2     1  UNL1        0.1672
     25 O          -0.0199    1.0714   30.5266 O.2     1  UNL1       -0.2946
     26 C           6.5753   -0.5581   28.6360 C.3     1  UNL1        0.0738
     27 N           6.9817   -1.5441   29.6908 N.3     1  UNL1       -0.2726
     28 C           7.6270   -1.0644   30.9572 C.3     1  UNL1        0.0721
     29 C           8.0333   -2.0504   32.0120 C.3     1  UNL1        0.0174
     30 C           7.7944   -3.5161   31.8005 C.3     1  UNL1        0.0031
     31 C           7.1491   -3.9957   30.5343 C.3     1  UNL1        0.0204
     32 C           6.7427   -3.0097   29.4794 C.3     1  UNL1        0.0724
     33 C           6.9102   -5.4614   30.3228 C.3     1  UNL1        0.0277
     34 C           7.2973   -6.1047   29.0242 C.ar    1  UNL1       -0.0220
     35 C           8.4547   -7.0576   28.9749 C.ar    1  UNL1       -0.0020
     36 C           8.8418   -7.7009   27.6763 C.ar    1  UNL1        0.0293
     37 C           8.0714   -7.3914   26.4270 C.ar    1  UNL1        0.1401
     38 F           8.4585   -8.0347   25.1285 F       1  UNL1       -0.2042
     39 C           6.9140   -6.4386   26.4763 C.ar    1  UNL1        0.0293
     40 C           6.5269   -5.7952   27.7749 C.ar    1  UNL1       -0.0020
@<TRIPOS>BOND
     1    23    24    1
     2    24    25    2
     3    24    22    1
     4    22     1    1
     5     1     2    1
     6     2     3    1
     7     3     4    1
     8     4    26    1
     9    26    27    1
    10    27    28    1
    11    28    29    1
    12    29    30    1
    13    30    31    1
    14    31    33    1
    15    33    34    1
    16    34    35   ar
    17    35    36   ar
    18    36    37   ar
    19    37    38    1
    20    37    39   ar
    21    39    40   ar
    22    31    32    1
    23     4     5    1
    24     5     7    1
    25     7     8   am
    26     8     9    2
    27     8    10   am
    28    10    13    1
    29    13    14   ar
    30    14    15   ar
    31    15    16    1
    32    15    17   ar
    33    17    19    1
    34    19    20    1
    35    19    21    2
    36    17    18   ar
    37     5     6    1
    38     6     1    1
    39    32    27    1
    40    18    13   ar
    41    40    34   ar
    42     7    11    1
    43    10    12    1
@<TRIPOS>MOLECULE
*****
 40 43 0 0 0
SMALL
GASTEIGER

@<TRIPOS>ATOM
      1 N           8.3016   -3.8570   27.8445 N.3     1  UNL1       -0.2651
      2 C           8.7797   -2.5937   28.4966 C.3     1  UNL1        0.0726
      3 C           8.0908   -1.2930   28.2072 C.3     1  UNL1        0.0204
      4 C           6.9238   -1.2557   27.2656 C.3     1  UNL1        0.0368
      5 C           6.4457   -2.5191   26.6135 C.3     1  UNL1        0.0903
      6 C           7.1346   -3.8197   26.9029 C.3     1  UNL1        0.0923
      7 N           5.2786   -2.4818   25.6719 N.am    1  UNL1       -0.2889
      8 C           5.4847   -2.7525   24.2110 C.2     1  UNL1        0.3059
      9 O           6.8578   -3.0604   23.6916 O.2     1  UNL1       -0.2524
     10 N           4.3176   -2.7153   23.2693 N.am    1  UNL1       -0.2485
     11 H           4.3773   -2.2797   26.0127 H       1  UNL1        0.1510
     12 H           3.4163   -2.5132   23.6102 H       1  UNL1        0.1583
     13 C           4.5236   -2.9859   21.8085 C.ar    1  UNL1        0.1664
     14 N           4.3945   -4.3184   21.1319 N.ar    1  UNL1       -0.2282
     15 C           4.6861   -4.1277   19.6729 C.ar    1  UNL1        0.0701
     16 C           4.6710   -5.1992   18.6233 C.3     1  UNL1        0.0528
     17 C           4.9954   -2.6772   19.4478 C.ar    1  UNL1        0.0803
     18 S           4.8950   -1.9716   20.7676 S.2     1  UNL1       -0.0488
     19 C           5.3439   -2.0437   18.1336 C.2     1  UNL1        0.1807
     20 C           4.3903   -1.0826   17.4880 C.3     1  UNL1        0.0779
     21 O           6.6461   -2.3713   17.4650 O.2     1  UNL1       -0.2908
     22 C           8.9905   -5.1576   28.1340 C.3     1  UNL1        0.1376
     23 C           8.3651   -7.6770   28.0271 C.3     1  UNL1        0.0738
     24 C           8.2033   -6.3239   28.6538 C.2     1  UNL1        0.1672
     25 O           7.2543   -6.1369   29.8003 O.2     1  UNL1       -0.2946
     26 C           6.2349    0.0449   26.9762 C.3     1  UNL1        0.0738
     27 N           5.9885    0.4635   25.5570 N.3     1  UNL1       -0.2726
     28 C           7.1176    0.4680   24.5695 C.3     1  UNL1        0.0721
     29 C           6.8712    0.8866   23.1504 C.3     1  UNL1        0.0174
     30 C           5.4956    1.3008   22.7187 C.3     1  UNL1        0.0031
     31 C           4.3665    1.2963   23.7061 C.3     1  UNL1        0.0204
     32 C           4.6129    0.8776   25.1253 C.3     1  UNL1        0.0724
     33 C           2.9910    1.7104   23.2744 C.3     1  UNL1        0.0277
     34 C           2.4994    1.3623   21.9007 C.ar    1  UNL1       -0.0220
     35 C           2.6114    2.3623   20.7882 C.ar    1  UNL1       -0.0020
     36 C           2.1198    2.0141   19.4145 C.ar    1  UNL1        0.0293
     37 C           1.5163    0.6660   19.1532 C.ar    1  UNL1        0.1401
     38 F           1.0247    0.3178   17.7795 F       1  UNL1       -0.2042
     39 C           1.4043   -0.3340   20.2656 C.ar    1  UNL1        0.0293
     40 C           1.8959    0.0141   21.6394 C.ar    1  UNL1       -0.0020
@<TRIPOS>BOND
     1    23    24    1
     2    24    25    2
     3    24    22    1
     4    22     1    1
     5     1     2    1
     6     2     3    1
     7     3     4    1
     8     4    26    1
     9    26    27    1
    10    27    28    1
    11    28    29    1
    12    29    30    1
    13    30    31    1
    14    31    33    1
    15    33    34    1
    16    34    35   ar
    17    35    36   ar
    18    36    37   ar
    19    37    38    1
    20    37    39   ar
    21    39    40   ar
    22    31    32    1
    23     4     5    1
    24     5     7    1
    25     7     8   am
    26     8     9    2
    27     8    10   am
    28    10    13    1
    29    13    14   ar
    30    14    15   ar
    31    15    16    1
    32    15    17   ar
    33    17    19    1
    34    19    20    1
    35    19    21    2
    36    17    18   ar
    37     5     6    1
    38     6     1    1
    39    32    27    1
    40    18    13   ar
    41    40    34   ar
    42     7    11    1
    43    10    12    1
@<TRIPOS>MOLECULE
*****
 40 43 0 0 0
SMALL
GASTEIGER

@<TRIPOS>ATOM
      1 N          -1.7116    4.2519   25.7336 N.3     1  UNL1       -0.2651
      2 C          -1.0058    4.7656   24.5138 C.3     1  UNL1        0.0726
      3 C           0.1029    3.9660   23.8962 C.3     1  UNL1        0.0204
      4 C           0.5058    2.6527   24.4984 C.3     1  UNL1        0.0368
      5 C          -0.1999    2.1390   25.7182 C.3     1  UNL1        0.0903
      6 C          -1.3086    2.9386   26.3358 C.3     1  UNL1        0.0923
      7 N           0.2030    0.8255   26.3205 N.am    1  UNL1       -0.2889
      8 C           1.1883    0.7896   27.4509 C.2     1  UNL1        0.3059
      9 O           1.7708    2.0670   27.9790 O.2     1  UNL1       -0.2524
     10 N           1.5912   -0.5238   28.0532 N.am    1  UNL1       -0.2485
     11 H          -0.1793   -0.0129   25.9739 H       1  UNL1        0.1510
     12 H           1.2089   -1.3622   27.7065 H       1  UNL1        0.1583
     13 C           2.5766   -0.5598   29.1835 C.ar    1  UNL1        0.1664
     14 N           2.2502   -0.4320   30.6420 N.ar    1  UNL1       -0.2282
     15 C           3.5332   -0.5230   31.4138 C.ar    1  UNL1        0.0701
     16 C           3.6725   -0.4439   32.9052 C.3     1  UNL1        0.0528
     17 C           4.6525   -0.7071   30.4323 C.ar    1  UNL1        0.0803
     18 S           4.0613   -0.7298   29.0539 S.2     1  UNL1       -0.0488
     19 C           6.1076   -0.8444   30.7699 C.2     1  UNL1        0.1807
     20 C           6.9150    0.3713   31.1164 C.3     1  UNL1        0.0779
     21 O           6.7551   -2.1974   30.7610 O.2     1  UNL1       -0.2908
     22 C          -2.8203    5.0515   26.3511 C.3     1  UNL1        0.1376
     23 C          -4.7371    3.6865   25.2501 C.3     1  UNL1        0.0738
     24 C          -4.2109    4.4917   26.4011 C.2     1  UNL1        0.1672
     25 O          -5.0755    4.7370   27.6021 O.2     1  UNL1       -0.2946
     26 C           1.6145    1.8531   23.8809 C.3     1  UNL1        0.0738
     27 N           1.5179    1.4183   22.4486 N.3     1  UNL1       -0.2726
     28 C           0.1864    1.4023   21.7578 C.3     1  UNL1        0.0721
     29 C           0.0898    0.9676   20.3255 C.3     1  UNL1        0.0174
     30 C           1.3245    0.5488   19.5838 C.3     1  UNL1        0.0031
     31 C           2.6559    0.5648   20.2745 C.3     1  UNL1        0.0204
     32 C           2.7526    0.9996   21.7069 C.3     1  UNL1        0.0724
     33 C           3.8906    0.1460   19.5328 C.3     1  UNL1        0.0277
     34 C           4.1404   -1.3060   19.2516 C.ar    1  UNL1       -0.0220
     35 C           3.1823   -2.3435   19.7574 C.ar    1  UNL1       -0.0020
     36 C           3.4321   -3.7956   19.4762 C.ar    1  UNL1        0.0293
     37 C           4.6398   -4.2102   18.6892 C.ar    1  UNL1        0.1401
     38 F           4.8896   -5.6622   18.4079 F       1  UNL1       -0.2042
     39 C           5.5979   -3.1728   18.1834 C.ar    1  UNL1        0.0293
     40 C           5.3481   -1.7206   18.4646 C.ar    1  UNL1       -0.0020
@<TRIPOS>BOND
     1    23    24    1
     2    24    25    2
     3    24    22    1
     4    22     1    1
     5     1     2    1
     6     2     3    1
     7     3     4    1
     8     4    26    1
     9    26    27    1
    10    27    28    1
    11    28    29    1
    12    29    30    1
    13    30    31    1
    14    31    33    1
    15    33    34    1
    16    34    35   ar
    17    35    36   ar
    18    36    37   ar
    19    37    38    1
    20    37    39   ar
    21    39    40   ar
    22    31    32    1
    23     4     5    1
    24     5     7    1
    25     7     8   am
    26     8     9    2
    27     8    10   am
    28    10    13    1
    29    13    14   ar
    30    14    15   ar
    31    15    16    1
    32    15    17   ar
    33    17    19    1
    34    19    20    1
    35    19    21    2
    36    17    18   ar
    37     5     6    1
    38     6     1    1
    39    32    27    1
    40    18    13   ar
    41    40    34   ar
    42     7    11    1
    43    10    12    1
@<TRIPOS>MOLECULE
*****
 40 43 0 0 0
SMALL
GASTEIGER

@<TRIPOS>ATOM
      1 N           8.4155   -4.9651   25.1318 N.3     1  UNL1       -0.2651
      2 C           9.2205   -4.5087   23.9513 C.3     1  UNL1        0.0726
      3 C           8.6503   -3.4991   22.9998 C.3     1  UNL1        0.0204
      4 C           7.2750   -2.9459   23.2286 C.3     1  UNL1        0.0368
      5 C           6.4699   -3.4023   24.4091 C.3     1  UNL1        0.0903
      6 C           7.0401   -4.4119   25.3607 C.3     1  UNL1        0.0923
      7 N           5.0945   -2.8491   24.6380 N.am    1  UNL1       -0.2889
      8 C           4.8566   -1.8650   25.7447 C.2     1  UNL1        0.3059
      9 O           5.9940   -1.4340   26.6225 O.2     1  UNL1       -0.2524
     10 N           3.4812   -1.3118   25.9736 N.am    1  UNL1       -0.2485
     11 H           4.3480   -3.1320   24.0619 H       1  UNL1        0.1510
     12 H           2.7346   -1.5946   25.3975 H       1  UNL1        0.1583
     13 C           3.2432   -0.3276   27.0803 C.ar    1  UNL1        0.1664
     14 N           3.5604    1.1379   27.0402 N.ar    1  UNL1       -0.2282
     15 C           3.1595    1.7351   28.3565 C.ar    1  UNL1        0.0701
     16 C           3.2991    3.1758   28.7501 C.3     1  UNL1        0.0528
     17 C           2.5946    0.6386   29.2102 C.ar    1  UNL1        0.0803
     18 S           2.6464   -0.6362   28.4214 S.2     1  UNL1       -0.0488
     19 C           2.0701    0.7903   30.6073 C.2     1  UNL1        0.1807
     20 C           2.9649    0.5124   31.7786 C.3     1  UNL1        0.0779
     21 O           0.6508    1.2200   30.8330 O.2     1  UNL1       -0.2908
     22 C           8.9857   -5.9747   26.0834 C.3     1  UNL1        0.1376
     23 C           7.4814   -8.0726   26.3761 C.3     1  UNL1        0.0738
     24 C           8.0700   -6.8088   26.9294 C.2     1  UNL1        0.1672
     25 O           7.7430   -6.3790   28.3289 O.2     1  UNL1       -0.2946
     26 C           6.7047   -1.9363   22.2770 C.3     1  UNL1        0.0738
     27 N           5.6989   -2.3600   21.2480 N.3     1  UNL1       -0.2726
     28 C           5.3523   -3.8109   21.0910 C.3     1  UNL1        0.0721
     29 C           4.3465   -4.2346   20.0620 C.3     1  UNL1        0.0174
     30 C           3.6873   -3.2073   19.1900 C.3     1  UNL1        0.0031
     31 C           4.0340   -1.7565   19.3470 C.3     1  UNL1        0.0204
     32 C           5.0398   -1.3327   20.3761 C.3     1  UNL1        0.0724
     33 C           3.3748   -0.7292   18.4751 C.3     1  UNL1        0.0277
     34 C           2.2201    0.0710   19.0005 C.ar    1  UNL1       -0.0220
     35 C           1.9155    1.4195   18.4184 C.ar    1  UNL1       -0.0020
     36 C           0.7607    2.2198   18.9438 C.ar    1  UNL1        0.0293
     37 C          -0.0894    1.6716   20.0514 C.ar    1  UNL1        0.1401
     38 F          -1.2442    2.4719   20.5769 F       1  UNL1       -0.2042
     39 C           0.2152    0.3232   20.6336 C.ar    1  UNL1        0.0293
     40 C           1.3700   -0.4771   20.1081 C.ar    1  UNL1       -0.0020
@<TRIPOS>BOND
     1    23    24    1
     2    24    25    2
     3    24    22    1
     4    22     1    1
     5     1     2    1
     6     2     3    1
     7     3     4    1
     8     4    26    1
     9    26    27    1
    10    27    28    1
    11    28    29    1
    12    29    30    1
    13    30    31    1
    14    31    33    1
    15    33    34    1
    16    34    35   ar
    17    35    36   ar
    18    36    37   ar
    19    37    38    1
    20    37    39   ar
    21    39    40   ar
    22    31    32    1
    23     4     5    1
    24     5     7    1
    25     7     8   am
    26     8     9    2
    27     8    10   am
    28    10    13    1
    29    13    14   ar
    30    14    15   ar
    31    15    16    1
    32    15    17   ar
    33    17    19    1
    34    19    20    1
    35    19    21    2
    36    17    18   ar
    37     5     6    1
    38     6     1    1
    39    32    27    1
    40    18    13   ar
    41    40    34   ar
    42     7    11    1
    43    10    12    1
@<TRIPOS>MOLECULE
*****
 40 43 0 0 0
SMALL
GASTEIGER

@<TRIPOS>ATOM
      1 N           2.7058    0.8220   27.7429 N.3     1  UNL1       -0.2651
      2 C           3.8883    0.9628   28.6550 C.3     1  UNL1        0.0726
      3 C           5.1010    0.1044   28.4488 C.3     1  UNL1        0.0204
      4 C           5.1313   -0.8946   27.3304 C.3     1  UNL1        0.0368
      5 C           3.9489   -1.0354   26.4182 C.3     1  UNL1        0.0903
      6 C           2.7362   -0.1770   26.6245 C.3     1  UNL1        0.0923
      7 N           3.9791   -2.0345   25.2997 N.am    1  UNL1       -0.2889
      8 C           4.2633   -1.5827   23.8980 C.2     1  UNL1        0.3059
      9 O           4.5172   -0.1317   23.6146 O.2     1  UNL1       -0.2524
     10 N           4.2935   -2.5818   22.7795 N.am    1  UNL1       -0.2485
     11 H           3.8125   -2.9868   25.4857 H       1  UNL1        0.1510
     12 H           4.1269   -3.5341   22.9655 H       1  UNL1        0.1583
     13 C           4.5777   -2.1300   21.3777 C.ar    1  UNL1        0.1664
     14 N           5.9094   -2.1773   20.6890 N.ar    1  UNL1       -0.2282
     15 C           5.7348   -1.6281   19.3041 C.ar    1  UNL1        0.0701
     16 C           6.8109   -1.4899   18.2682 C.3     1  UNL1        0.0528
     17 C           4.2951   -1.2412   19.1369 C.ar    1  UNL1        0.0803
     18 S           3.5801   -1.5514   20.4185 S.2     1  UNL1       -0.0488
     19 C           3.6789   -0.6483   17.9046 C.2     1  UNL1        0.1807
     20 C           2.8317    0.5852   18.0089 C.3     1  UNL1        0.0779
     21 O           3.9098   -1.2888   16.5680 O.2     1  UNL1       -0.2908
     22 C           1.4931    1.6804   27.9492 C.3     1  UNL1        0.1376
     23 C          -0.9636    0.8440   28.0721 C.3     1  UNL1        0.0738
     24 C           0.3356    1.1630   28.7506 C.2     1  UNL1        0.1672
     25 O           0.4772    0.9646   30.2308 O.2     1  UNL1       -0.2946
     26 C           6.3440   -1.7530   27.1241 C.3     1  UNL1        0.0738
     27 N           6.5340   -2.9929   27.9466 N.3     1  UNL1       -0.2726
     28 C           6.5457   -4.3383   27.2835 C.3     1  UNL1        0.0721
     29 C           6.7357   -5.5782   28.1060 C.3     1  UNL1        0.0174
     30 C           6.9141   -5.4727   29.5916 C.3     1  UNL1        0.0031
     31 C           6.9025   -4.1273   30.2547 C.3     1  UNL1        0.0204
     32 C           6.7124   -2.8873   29.4322 C.3     1  UNL1        0.0724
     33 C           7.0809   -4.0218   31.7403 C.3     1  UNL1        0.0277
     34 C           6.5099   -2.8502   32.4830 C.ar    1  UNL1       -0.0220
     35 C           5.0565   -2.8334   32.8540 C.ar    1  UNL1       -0.0020
     36 C           4.4856   -1.6619   33.5966 C.ar    1  UNL1        0.0293
     37 C           5.3679   -0.5072   33.9682 C.ar    1  UNL1        0.1401
     38 F           4.7969    0.6643   34.7108 F       1  UNL1       -0.2042
     39 C           6.8211   -0.5240   33.5973 C.ar    1  UNL1        0.0293
     40 C           7.3922   -1.6955   32.8546 C.ar    1  UNL1       -0.0020
@<TRIPOS>BOND
     1    23    24    1
     2    24    25    2
     3    24    22    1
     4    22     1    1
     5     1     2    1
     6     2     3    1
     7     3     4    1
     8     4    26    1
     9    26    27    1
    10    27    28    1
    11    28    29    1
    12    29    30    1
    13    30    31    1
    14    31    33    1
    15    33    34    1
    16    34    35   ar
    17    35    36   ar
    18    36    37   ar
    19    37    38    1
    20    37    39   ar
    21    39    40   ar
    22    31    32    1
    23     4     5    1
    24     5     7    1
    25     7     8   am
    26     8     9    2
    27     8    10   am
    28    10    13    1
    29    13    14   ar
    30    14    15   ar
    31    15    16    1
    32    15    17   ar
    33    17    19    1
    34    19    20    1
    35    19    21    2
    36    17    18   ar
    37     5     6    1
    38     6     1    1
    39    32    27    1
    40    18    13   ar
    41    40    34   ar
    42     7    11    1
    43    10    12    1
@<TRIPOS>MOLECULE
*****
 40 43 0 0 0
SMALL
GASTEIGER

@<TRIPOS>ATOM
      1 N           5.3622   -1.5727   20.2293 N.3     1  UNL1       -0.2651
      2 C           4.3680   -2.3260   19.3962 C.3     1  UNL1        0.0726
      3 C           2.9123   -1.9701   19.4613 C.3     1  UNL1        0.0204
      4 C           2.4508   -0.8610   20.3595 C.3     1  UNL1        0.0368
      5 C           3.4449   -0.1078   21.1926 C.3     1  UNL1        0.0903
      6 C           4.9007   -0.4636   21.1275 C.3     1  UNL1        0.0923
      7 N           2.9834    1.0014   22.0909 N.am    1  UNL1       -0.2889
      8 C           2.4813    0.6902   23.4697 C.2     1  UNL1        0.3059
      9 O           2.4406   -0.7302   23.9502 O.2     1  UNL1       -0.2524
     10 N           2.0197    1.7993   24.3679 N.am    1  UNL1       -0.2485
     11 H           3.0101    1.9336   21.7755 H       1  UNL1        0.1510
     12 H           2.0464    2.7316   24.0526 H       1  UNL1        0.1583
     13 C           1.5176    1.4881   25.7467 C.ar    1  UNL1        0.1664
     14 N           0.0854    1.2684   26.1347 N.ar    1  UNL1       -0.2282
     15 C           0.0421    0.9864   27.6073 C.ar    1  UNL1        0.0701
     16 C          -1.1902    0.7079   28.4158 C.3     1  UNL1        0.0528
     17 C           1.4476    1.0319   28.1295 C.ar    1  UNL1        0.0803
     18 S           2.3595    1.3419   26.9795 S.2     1  UNL1       -0.0488
     19 C           1.8675    0.8068   29.5518 C.2     1  UNL1        0.1807
     20 C           2.4951    1.9223   30.3339 C.3     1  UNL1        0.0779
     21 O           1.6597   -0.5338   30.1919 O.2     1  UNL1       -0.2908
     22 C           6.8180   -1.9285   20.1642 C.3     1  UNL1        0.1376
     23 C           8.8572   -0.7548   19.0626 C.3     1  UNL1        0.0738
     24 C           7.6184   -1.5917   18.9412 C.2     1  UNL1        0.1672
     25 O           7.1800   -2.0919   17.5967 O.2     1  UNL1       -0.2946
     26 C           0.9950   -0.5052   20.4246 C.3     1  UNL1        0.0738
     27 N           0.5405    0.8690   20.0313 N.3     1  UNL1       -0.2726
     28 C           0.7343    1.3488   18.6233 C.3     1  UNL1        0.0721
     29 C           0.2798    2.7230   18.2299 C.3     1  UNL1        0.0174
     30 C          -0.3685    3.6176   19.2445 C.3     1  UNL1        0.0031
     31 C          -0.5623    3.1380   20.6524 C.3     1  UNL1        0.0204
     32 C          -0.1077    1.7637   21.0458 C.3     1  UNL1        0.0724
     33 C          -1.2105    4.0326   21.6670 C.3     1  UNL1        0.0277
     34 C          -2.6823    3.9206   21.9342 C.ar    1  UNL1       -0.0220
     35 C          -3.5890    3.3225   20.8997 C.ar    1  UNL1       -0.0020
     36 C          -5.0607    3.2105   21.1669 C.ar    1  UNL1        0.0293
     37 C          -5.6258    3.6967   22.4685 C.ar    1  UNL1        0.1401
     38 F          -7.0975    3.5847   22.7357 F       1  UNL1       -0.2042
     39 C          -4.7191    4.2947   23.5030 C.ar    1  UNL1        0.0293
     40 C          -3.2473    4.4067   23.2359 C.ar    1  UNL1       -0.0020
@<TRIPOS>BOND
     1    23    24    1
     2    24    25    2
     3    24    22    1
     4    22     1    1
     5     1     2    1
     6     2     3    1
     7     3     4    1
     8     4    26    1
     9    26    27    1
    10    27    28    1
    11    28    29    1
    12    29    30    1
    13    30    31    1
    14    31    33    1
    15    33    34    1
    16    34    35   ar
    17    35    36   ar
    18    36    37   ar
    19    37    38    1
    20    37    39   ar
    21    39    40   ar
    22    31    32    1
    23     4     5    1
    24     5     7    1
    25     7     8   am
    26     8     9    2
    27     8    10   am
    28    10    13    1
    29    13    14   ar
    30    14    15   ar
    31    15    16    1
    32    15    17   ar
    33    17    19    1
    34    19    20    1
    35    19    21    2
    36    17    18   ar
    37     5     6    1
    38     6     1    1
    39    32    27    1
    40    18    13   ar
    41    40    34   ar
    42     7    11    1
    43    10    12    1
