@<TRIPOS>MOLECULE
*****
 27 29 0 0 0
SMALL
GASTEIGER

@<TRIPOS>ATOM
      1 C          -9.6492  -19.2757   21.0936 C.ar    1  UNL1        0.1392
      2 C          -8.8895  -19.3589   19.8029 C.ar    1  UNL1        0.0366
      3 C          -7.4437  -19.7586   19.8080 C.ar    1  UNL1       -0.0011
      4 C          -6.7576  -20.0750   21.1038 C.ar    1  UNL1       -0.0206
      5 C          -7.5173  -19.9918   22.3946 C.ar    1  UNL1       -0.0011
      6 C          -8.9631  -19.5921   22.3895 C.ar    1  UNL1        0.0366
      7 O         -11.0950  -18.8761   21.0886 O.3     1  UNL1       -0.4671
      8 C         -11.4856  -17.4699   21.4352 C.3     1  UNL1        0.2752
      9 C         -10.4848  -16.3601   21.3066 C.2     1  UNL1        0.2343
     10 O         -10.4822  -15.4904   20.0845 O.2     1  UNL1       -0.2858
     11 C          -7.4899  -15.6398   24.5871 C.ar    1  UNL1       -0.0030
     12 C          -8.8667  -16.1310   24.9231 C.ar    1  UNL1       -0.0011
     13 C          -9.8650  -16.3711   23.8296 C.ar    1  UNL1        0.0219
     14 C          -9.4865  -16.1200   22.4001 C.ar    1  UNL1        0.1196
     15 N          -8.1096  -15.6289   22.0640 N.ar    1  UNL1       -0.2412
     16 C          -7.1113  -15.3888   23.1575 C.ar    1  UNL1        0.0946
     17 C          -6.9120  -15.5059   27.1165 C.3     1  UNL1        0.0051
     18 C          -6.4916  -15.3997   25.6806 C.3     1  UNL1        0.0279
     19 C          -5.3119  -20.4746   21.1089 C.3     1  UNL1        0.0468
     20 C          -4.2586  -19.4840   20.7101 C.3     1  UNL1        0.1369
     21 S          -3.4043  -19.5530   19.4791 S.3     1  UNL1       -0.0482
     22 C          -2.4923  -18.3621   19.4804 C.2     1  UNL1        0.2792
     23 O          -1.4693  -18.0338   18.4337 O.2     1  UNL1       -0.2625
     24 N          -2.7830  -17.5570   20.7123 N.am    1  UNL1       -0.2460
     25 C          -3.8746  -18.2504   21.4723 C.2     1  UNL1        0.2392
     26 O          -4.4765  -17.7909   22.7671 O.2     1  UNL1       -0.2737
     27 H          -2.3358  -16.7204   20.9758 H       1  UNL1        0.1583
@<TRIPOS>BOND
     1    17    18    1
     2    18    11    1
     3    11    12   ar
     4    12    13   ar
     5    13    14   ar
     6    14     9    1
     7     9    10    2
     8     9     8    1
     9     8     7    1
    10     7     1    1
    11     1     2   ar
    12     2     3   ar
    13     3     4   ar
    14     4    19    1
    15    19    20    1
    16    20    21    1
    17    21    22    1
    18    22    23    2
    19    22    24   am
    20    24    25   am
    21    25    26    2
    22     4     5   ar
    23     5     6   ar
    24    14    15   ar
    25    15    16   ar
    26    16    11   ar
    27     6     1   ar
    28    25    20    1
    29    24    27    1
@<TRIPOS>MOLECULE
*****
 27 29 0 0 0
SMALL
GASTEIGER

@<TRIPOS>ATOM
      1 C          -8.0319  -19.3892   20.7429 C.ar    1  UNL1        0.1392
      2 C          -7.6489  -18.4306   21.8313 C.ar    1  UNL1        0.0366
      3 C          -6.2454  -18.4188   22.3606 C.ar    1  UNL1       -0.0011
      4 C          -5.2250  -19.3655   21.8016 C.ar    1  UNL1       -0.0206
      5 C          -5.6081  -20.3241   20.7132 C.ar    1  UNL1       -0.0011
      6 C          -7.0115  -20.3359   20.1839 C.ar    1  UNL1        0.0366
      7 O          -9.4354  -19.4010   20.2136 O.3     1  UNL1       -0.4671
      8 C         -10.2915  -18.1748   20.3306 C.3     1  UNL1        0.2752
      9 C         -11.1665  -17.9831   21.5337 C.2     1  UNL1        0.2343
     10 O         -12.6586  -18.0444   21.3933 O.2     1  UNL1       -0.2858
     11 C          -9.3153  -17.2243   25.5645 C.ar    1  UNL1       -0.0030
     12 C          -9.9183  -18.5626   25.2561 C.ar    1  UNL1       -0.0011
     13 C         -10.5354  -18.8156   23.9125 C.ar    1  UNL1        0.0219
     14 C         -10.5494  -17.7302   22.8773 C.ar    1  UNL1        0.1196
     15 N          -9.9464  -16.3918   23.1857 N.ar    1  UNL1       -0.2412
     16 C          -9.3293  -16.1389   24.5293 C.ar    1  UNL1        0.0946
     17 C          -7.8061  -15.7828   27.1119 C.3     1  UNL1        0.0051
     18 C          -8.6982  -16.9713   26.9081 C.3     1  UNL1        0.0279
     19 C          -3.8216  -19.3537   22.3309 C.3     1  UNL1        0.0468
     20 C          -2.7570  -18.5753   21.6162 C.3     1  UNL1        0.1369
     21 S          -1.7695  -19.1300   20.6328 S.3     1  UNL1       -0.0482
     22 C          -0.8952  -18.0031   20.1682 C.2     1  UNL1        0.2792
     23 O           0.2289  -18.1088   19.1807 O.2     1  UNL1       -0.2625
     24 N          -1.3424  -16.7520   20.8645 N.am    1  UNL1       -0.2460
     25 C          -2.4931  -17.1057   21.7594 C.2     1  UNL1        0.2392
     26 O          -3.2474  -16.1564   22.6424 O.2     1  UNL1       -0.2737
     27 H          -0.9497  -15.8561   20.7536 H       1  UNL1        0.1583
@<TRIPOS>BOND
     1    17    18    1
     2    18    11    1
     3    11    12   ar
     4    12    13   ar
     5    13    14   ar
     6    14     9    1
     7     9    10    2
     8     9     8    1
     9     8     7    1
    10     7     1    1
    11     1     2   ar
    12     2     3   ar
    13     3     4   ar
    14     4    19    1
    15    19    20    1
    16    20    21    1
    17    21    22    1
    18    22    23    2
    19    22    24   am
    20    24    25   am
    21    25    26    2
    22     4     5   ar
    23     5     6   ar
    24    14    15   ar
    25    15    16   ar
    26    16    11   ar
    27     6     1   ar
    28    25    20    1
    29    24    27    1
@<TRIPOS>MOLECULE
*****
 27 29 0 0 0
SMALL
GASTEIGER

@<TRIPOS>ATOM
      1 C         -11.4245   -6.9134   18.5199 C.ar    1  UNL1        0.1392
      2 C         -12.6510   -6.5595   19.3075 C.ar    1  UNL1        0.0366
      3 C         -14.0079   -6.9421   18.7949 C.ar    1  UNL1       -0.0011
      4 C         -14.1381   -7.6785   17.4947 C.ar    1  UNL1       -0.0206
      5 C         -12.9115   -8.0324   16.7070 C.ar    1  UNL1       -0.0011
      6 C         -11.5548   -7.6498   17.2196 C.ar    1  UNL1        0.0366
      7 O         -10.0677   -6.5308   19.0325 O.3     1  UNL1       -0.4671
      8 C          -9.6633   -5.0871   19.0792 C.3     1  UNL1        0.2752
      9 C          -9.8780   -4.2090   17.8822 C.2     1  UNL1        0.2343
     10 O          -9.2118   -4.5403   16.5798 O.2     1  UNL1       -0.2858
     11 C         -12.5210   -0.5807   18.1986 C.ar    1  UNL1       -0.0030
     12 C         -12.8086   -1.7931   19.0336 C.ar    1  UNL1       -0.0011
     13 C         -11.9276   -3.0025   18.9281 C.ar    1  UNL1        0.0219
     14 C         -10.7590   -2.9995   17.9877 C.ar    1  UNL1        0.1196
     15 N         -10.4715   -1.7871   17.1527 N.ar    1  UNL1       -0.2412
     16 C         -11.3525   -0.5777   17.2581 C.ar    1  UNL1        0.0946
     17 C         -14.8075    0.4911   18.8097 C.3     1  UNL1        0.0051
     18 C         -13.4020    0.6288   18.3041 C.3     1  UNL1        0.0279
     19 C         -15.4949   -8.0611   16.9821 C.3     1  UNL1        0.0468
     20 C         -16.4516   -8.7992   17.8708 C.3     1  UNL1        0.1369
     21 S         -17.7385   -8.2598   18.4214 S.3     1  UNL1       -0.0482
     22 C         -18.3717   -9.3334   19.2558 C.2     1  UNL1        0.2792
     23 O         -19.6722   -9.2234   19.9954 O.2     1  UNL1       -0.2625
     24 N         -17.4763  -10.5363   19.2210 N.am    1  UNL1       -0.2460
     25 C         -16.2896  -10.2061   18.3650 C.2     1  UNL1        0.2392
     26 O         -15.1423  -11.1221   18.0572 O.2     1  UNL1       -0.2737
     27 H         -17.6389  -11.3923   19.6794 H       1  UNL1        0.1583
@<TRIPOS>BOND
     1    17    18    1
     2    18    11    1
     3    11    12   ar
     4    12    13   ar
     5    13    14   ar
     6    14     9    1
     7     9    10    2
     8     9     8    1
     9     8     7    1
    10     7     1    1
    11     1     2   ar
    12     2     3   ar
    13     3     4   ar
    14     4    19    1
    15    19    20    1
    16    20    21    1
    17    21    22    1
    18    22    23    2
    19    22    24   am
    20    24    25   am
    21    25    26    2
    22     4     5   ar
    23     5     6   ar
    24    14    15   ar
    25    15    16   ar
    26    16    11   ar
    27     6     1   ar
    28    25    20    1
    29    24    27    1
@<TRIPOS>MOLECULE
*****
 27 29 0 0 0
SMALL
GASTEIGER

@<TRIPOS>ATOM
      1 C           8.3058   -8.8259   27.4273 C.ar    1  UNL1        0.1392
      2 C           7.5131   -8.1767   26.3318 C.ar    1  UNL1        0.0366
      3 C           7.5849   -6.6916   26.1330 C.ar    1  UNL1       -0.0011
      4 C           8.4493   -5.8558   27.0297 C.ar    1  UNL1       -0.0206
      5 C           9.2420   -6.5051   28.1253 C.ar    1  UNL1       -0.0011
      6 C           9.1702   -7.9901   28.3241 C.ar    1  UNL1        0.0366
      7 O           8.2340  -10.3110   27.6262 O.3     1  UNL1       -0.4671
      8 C           7.0081  -10.9282   28.2312 C.3     1  UNL1        0.2752
      9 C           6.6283  -12.3371   27.8837 C.2     1  UNL1        0.2343
     10 O           7.6659  -13.2867   27.3625 O.2     1  UNL1       -0.2858
     11 C           2.3762  -13.7150   28.4047 C.ar    1  UNL1       -0.0030
     12 C           2.9038  -12.5807   29.2324 C.ar    1  UNL1       -0.0011
     13 C           4.3212  -12.1214   29.0587 C.ar    1  UNL1        0.0219
     14 C           5.2109  -12.7964   28.0574 C.ar    1  UNL1        0.1196
     15 N           4.6833  -13.9307   27.2298 N.ar    1  UNL1       -0.2412
     16 C           3.2660  -14.3900   27.4034 C.ar    1  UNL1        0.0946
     17 C          -0.1650  -13.1838   28.5032 C.3     1  UNL1        0.0051
     18 C           0.9589  -14.1743   28.5784 C.3     1  UNL1        0.0279
     19 C           8.5211   -4.3708   26.8309 C.3     1  UNL1        0.0468
     20 C           7.2629   -3.5545   26.8158 C.3     1  UNL1        0.1369
     21 S           6.7526   -2.7423   25.6626 S.3     1  UNL1       -0.0482
     22 C           5.4683   -2.0929   26.0854 C.2     1  UNL1        0.2792
     23 O           4.6169   -1.1910   25.2417 O.2     1  UNL1       -0.2625
     24 N           5.1848   -2.5036   27.5000 N.am    1  UNL1       -0.2460
     25 C           6.2939   -3.4069   27.9514 C.2     1  UNL1        0.2392
     26 O           6.4132   -4.0498   29.3013 O.2     1  UNL1       -0.2737
     27 H           4.4073   -2.2286   28.0377 H       1  UNL1        0.1583
@<TRIPOS>BOND
     1    17    18    1
     2    18    11    1
     3    11    12   ar
     4    12    13   ar
     5    13    14   ar
     6    14     9    1
     7     9    10    2
     8     9     8    1
     9     8     7    1
    10     7     1    1
    11     1     2   ar
    12     2     3   ar
    13     3     4   ar
    14     4    19    1
    15    19    20    1
    16    20    21    1
    17    21    22    1
    18    22    23    2
    19    22    24   am
    20    24    25   am
    21    25    26    2
    22     4     5   ar
    23     5     6   ar
    24    14    15   ar
    25    15    16   ar
    26    16    11   ar
    27     6     1   ar
    28    25    20    1
    29    24    27    1
@<TRIPOS>MOLECULE
*****
 27 29 0 0 0
SMALL
GASTEIGER

@<TRIPOS>ATOM
      1 C          -7.7545  -16.3165   24.2477 C.ar    1  UNL1        0.1392
      2 C          -6.7470  -15.6559   25.1412 C.ar    1  UNL1        0.0366
      3 C          -5.2826  -15.7796   24.8406 C.ar    1  UNL1       -0.0011
      4 C          -4.8258  -16.5640   23.6464 C.ar    1  UNL1       -0.0206
      5 C          -5.8334  -17.2247   22.7529 C.ar    1  UNL1       -0.0011
      6 C          -7.2977  -17.1009   23.0535 C.ar    1  UNL1        0.0366
      7 O          -9.2189  -16.1927   24.5483 O.3     1  UNL1       -0.4671
      8 C         -10.2233  -16.2915   23.4386 C.3     1  UNL1        0.2752
      9 C         -10.8311  -17.6186   23.0931 C.2     1  UNL1        0.2343
     10 O         -11.8528  -18.2349   24.0020 O.2     1  UNL1       -0.2858
     11 C          -9.5896  -19.7507   19.3297 C.ar    1  UNL1       -0.0030
     12 C         -10.9004  -19.0234   19.3821 C.ar    1  UNL1       -0.0011
     13 C         -11.3143  -18.3127   20.6365 C.ar    1  UNL1        0.0219
     14 C         -10.4173  -18.3293   21.8386 C.ar    1  UNL1        0.1196
     15 N          -9.1065  -19.0566   21.7863 N.ar    1  UNL1       -0.2412
     16 C          -8.6927  -19.7673   20.5318 C.ar    1  UNL1        0.0946
     17 C          -8.5128  -21.8043   18.1580 C.3     1  UNL1        0.0051
     18 C          -9.1758  -20.4614   18.0753 C.3     1  UNL1        0.0279
     19 C          -3.3615  -16.6878   23.3458 C.3     1  UNL1        0.0468
     20 C          -2.9000  -17.5452   22.2048 C.3     1  UNL1        0.1369
     21 S          -2.0307  -17.1032   21.0651 S.3     1  UNL1       -0.0482
     22 C          -1.8202  -18.2800   20.1592 C.2     1  UNL1        0.2792
     23 O          -1.0124  -18.2863   18.8953 O.2     1  UNL1       -0.2625
     24 N          -2.5594  -19.4494   20.7390 N.am    1  UNL1       -0.2460
     25 C          -3.2267  -18.9953   22.0033 C.2     1  UNL1        0.2392
     26 O          -4.0723  -19.8425   22.9073 O.2     1  UNL1       -0.2737
     27 H          -2.5995  -20.3558   20.3568 H       1  UNL1        0.1583
@<TRIPOS>BOND
     1    17    18    1
     2    18    11    1
     3    11    12   ar
     4    12    13   ar
     5    13    14   ar
     6    14     9    1
     7     9    10    2
     8     9     8    1
     9     8     7    1
    10     7     1    1
    11     1     2   ar
    12     2     3   ar
    13     3     4   ar
    14     4    19    1
    15    19    20    1
    16    20    21    1
    17    21    22    1
    18    22    23    2
    19    22    24   am
    20    24    25   am
    21    25    26    2
    22     4     5   ar
    23     5     6   ar
    24    14    15   ar
    25    15    16   ar
    26    16    11   ar
    27     6     1   ar
    28    25    20    1
    29    24    27    1
@<TRIPOS>MOLECULE
*****
 27 29 0 0 0
SMALL
GASTEIGER

@<TRIPOS>ATOM
      1 C          -6.1343  -17.1917   23.3341 C.ar    1  UNL1        0.1392
      2 C          -5.0052  -16.2395   23.5953 C.ar    1  UNL1        0.0366
      3 C          -3.6205  -16.5702   23.1225 C.ar    1  UNL1       -0.0011
      4 C          -3.3650  -17.8532   22.3885 C.ar    1  UNL1       -0.0206
      5 C          -4.4943  -18.8054   22.1273 C.ar    1  UNL1       -0.0011
      6 C          -5.8788  -18.4747   22.6001 C.ar    1  UNL1        0.0366
      7 O          -7.5189  -16.8610   23.8068 O.3     1  UNL1       -0.4671
      8 C          -8.4559  -16.1043   22.9128 C.3     1  UNL1        0.2752
      9 C          -9.6998  -16.7660   22.3981 C.2     1  UNL1        0.2343
     10 O         -11.0381  -16.3865   22.9591 O.2     1  UNL1       -0.2858
     11 C          -9.4163  -19.8893   19.1709 C.ar    1  UNL1       -0.0030
     12 C         -10.7570  -19.4893   19.7118 C.ar    1  UNL1       -0.0011
     13 C         -10.8514  -18.4482   20.7876 C.ar    1  UNL1        0.0219
     14 C          -9.6053  -17.8071   21.3223 C.ar    1  UNL1        0.1196
     15 N          -8.2647  -18.2070   20.7814 N.ar    1  UNL1       -0.2412
     16 C          -8.1702  -19.2481   19.7056 C.ar    1  UNL1        0.0946
     17 C          -8.1074  -21.8059   18.0034 C.3     1  UNL1        0.0051
     18 C          -9.3218  -20.9304   18.0952 C.3     1  UNL1        0.0279
     19 C          -1.9805  -18.1839   21.9158 C.3     1  UNL1        0.0468
     20 C          -1.6073  -17.9690   20.4789 C.3     1  UNL1        0.1369
     21 S          -2.5477  -17.6039   19.3689 S.3     1  UNL1       -0.0482
     22 C          -1.7498  -17.4907   18.1038 C.2     1  UNL1        0.2792
     23 O          -2.2906  -17.1434   16.7484 O.2     1  UNL1       -0.2625
     24 N          -0.3162  -17.7858   18.4319 N.am    1  UNL1       -0.2460
     25 C          -0.2281  -18.0814   19.8999 C.2     1  UNL1        0.2392
     26 O           1.0200  -18.4285   20.6560 O.2     1  UNL1       -0.2737
     27 H           0.4350  -17.7856   17.7956 H       1  UNL1        0.1583
@<TRIPOS>BOND
     1    17    18    1
     2    18    11    1
     3    11    12   ar
     4    12    13   ar
     5    13    14   ar
     6    14     9    1
     7     9    10    2
     8     9     8    1
     9     8     7    1
    10     7     1    1
    11     1     2   ar
    12     2     3   ar
    13     3     4   ar
    14     4    19    1
    15    19    20    1
    16    20    21    1
    17    21    22    1
    18    22    23    2
    19    22    24   am
    20    24    25   am
    21    25    26    2
    22     4     5   ar
    23     5     6   ar
    24    14    15   ar
    25    15    16   ar
    26    16    11   ar
    27     6     1   ar
    28    25    20    1
    29    24    27    1
@<TRIPOS>MOLECULE
*****
 27 29 0 0 0
SMALL
GASTEIGER

@<TRIPOS>ATOM
      1 C           0.3323    1.2752   21.4793 C.ar    1  UNL1        0.1392
      2 C           1.3550    1.1672   22.5712 C.ar    1  UNL1        0.0366
      3 C           2.4218    0.1152   22.4982 C.ar    1  UNL1       -0.0011
      4 C           2.4659   -0.8287   21.3333 C.ar    1  UNL1       -0.0206
      5 C           1.4431   -0.7207   20.2414 C.ar    1  UNL1       -0.0011
      6 C           0.3763    0.3312   20.3144 C.ar    1  UNL1        0.0366
      7 O          -0.7346    2.3272   21.5523 O.3     1  UNL1       -0.4671
      8 C          -1.4053    2.8034   20.2979 C.3     1  UNL1        0.2752
      9 C          -2.7828    3.3937   20.3617 C.2     1  UNL1        0.2343
     10 O          -3.5387    3.6722   19.0964 O.2     1  UNL1       -0.2858
     11 C          -4.6474    4.3292   24.3490 C.ar    1  UNL1       -0.0030
     12 C          -5.3174    3.3652   23.4154 C.ar    1  UNL1       -0.0011
     13 C          -4.6959    3.0534   22.0863 C.ar    1  UNL1        0.0219
     14 C          -3.4043    3.7055   21.6908 C.ar    1  UNL1        0.1196
     15 N          -2.7343    4.6695   22.6244 N.ar    1  UNL1       -0.2412
     16 C          -3.3558    4.9814   23.9535 C.ar    1  UNL1        0.0946
     17 C          -4.5015    4.3903   26.9422 C.3     1  UNL1        0.0051
     18 C          -5.2689    4.6411   25.6780 C.3     1  UNL1        0.0279
     19 C           3.5326   -1.8807   21.2603 C.3     1  UNL1        0.0468
     20 C           4.2628   -2.1202   19.9721 C.3     1  UNL1        0.1369
     21 S           5.3281   -1.2417   19.3861 S.3     1  UNL1       -0.0482
     22 C           5.7796   -1.8588   18.0956 C.2     1  UNL1        0.2792
     23 O           6.8325   -1.3120   17.1777 O.2     1  UNL1       -0.2625
     24 N           4.9933   -3.1186   17.8841 N.am    1  UNL1       -0.2460
     25 C           4.0559   -3.2801   19.0439 C.2     1  UNL1        0.2392
     26 O           3.0825   -4.4042   19.2408 O.2     1  UNL1       -0.2737
     27 H           5.0777   -3.7318   17.1185 H       1  UNL1        0.1583
@<TRIPOS>BOND
     1    17    18    1
     2    18    11    1
     3    11    12   ar
     4    12    13   ar
     5    13    14   ar
     6    14     9    1
     7     9    10    2
     8     9     8    1
     9     8     7    1
    10     7     1    1
    11     1     2   ar
    12     2     3   ar
    13     3     4   ar
    14     4    19    1
    15    19    20    1
    16    20    21    1
    17    21    22    1
    18    22    23    2
    19    22    24   am
    20    24    25   am
    21    25    26    2
    22     4     5   ar
    23     5     6   ar
    24    14    15   ar
    25    15    16   ar
    26    16    11   ar
    27     6     1   ar
    28    25    20    1
    29    24    27    1
@<TRIPOS>MOLECULE
*****
 27 29 0 0 0
SMALL
GASTEIGER

@<TRIPOS>ATOM
      1 C           3.8844   -1.2005   24.9208 C.ar    1  UNL1        0.1392
      2 C           2.9095   -0.1850   24.4029 C.ar    1  UNL1        0.0366
      3 C           2.5251   -0.1856   22.9529 C.ar    1  UNL1       -0.0011
      4 C           3.1158   -1.2018   22.0209 C.ar    1  UNL1       -0.0206
      5 C           4.0907   -2.2173   22.5389 C.ar    1  UNL1       -0.0011
      6 C           4.4750   -2.2166   23.9888 C.ar    1  UNL1        0.0366
      7 O           4.2688   -1.1998   26.3708 O.3     1  UNL1       -0.4671
      8 C           5.7022   -1.3962   26.7668 C.3     1  UNL1        0.2752
      9 C           6.0970   -2.5882   27.5873 C.2     1  UNL1        0.2343
     10 O           6.0041   -2.5328   29.0833 O.2     1  UNL1       -0.2858
     11 C           7.5604   -6.3300   25.5607 C.ar    1  UNL1       -0.0030
     12 C           7.4947   -5.0404   24.7975 C.ar    1  UNL1       -0.0011
     13 C           7.0070   -3.7931   25.4730 C.ar    1  UNL1        0.0219
     14 C           6.5848   -3.8354   26.9117 C.ar    1  UNL1        0.1196
     15 N           6.6504   -5.1251   27.6749 N.ar    1  UNL1       -0.2412
     16 C           7.1382   -6.3724   26.9994 C.ar    1  UNL1        0.0946
     17 C           9.0701   -7.4869   23.7909 C.3     1  UNL1        0.0051
     18 C           8.0481   -7.5773   24.8851 C.3     1  UNL1        0.0279
     19 C           2.7315   -1.2024   20.5710 C.3     1  UNL1        0.0468
     20 C           3.7399   -1.5834   19.5280 C.3     1  UNL1        0.1369
     21 S           4.7688   -0.6749   18.9230 S.3     1  UNL1       -0.0482
     22 C           5.5613   -1.4698   17.9280 C.2     1  UNL1        0.2792
     23 O           6.6940   -0.9553   17.0900 O.2     1  UNL1       -0.2625
     24 N           5.0223   -2.8697   17.9181 N.am    1  UNL1       -0.2460
     25 C           3.8966   -2.9398   18.9070 C.2     1  UNL1        0.2392
     26 O           3.0723   -4.1534   19.2199 O.2     1  UNL1       -0.2737
     27 H           5.3498   -3.6120   17.3605 H       1  UNL1        0.1583
@<TRIPOS>BOND
     1    17    18    1
     2    18    11    1
     3    11    12   ar
     4    12    13   ar
     5    13    14   ar
     6    14     9    1
     7     9    10    2
     8     9     8    1
     9     8     7    1
    10     7     1    1
    11     1     2   ar
    12     2     3   ar
    13     3     4   ar
    14     4    19    1
    15    19    20    1
    16    20    21    1
    17    21    22    1
    18    22    23    2
    19    22    24   am
    20    24    25   am
    21    25    26    2
    22     4     5   ar
    23     5     6   ar
    24    14    15   ar
    25    15    16   ar
    26    16    11   ar
    27     6     1   ar
    28    25    20    1
    29    24    27    1
@<TRIPOS>MOLECULE
*****
 27 29 0 0 0
SMALL
GASTEIGER

@<TRIPOS>ATOM
      1 C          -0.1164    2.3263   22.8215 C.ar    1  UNL1        0.1392
      2 C          -1.0802    3.2724   23.4740 C.ar    1  UNL1        0.0366
      3 C          -1.3391    3.1807   24.9487 C.ar    1  UNL1       -0.0011
      4 C          -0.6342    2.1428   25.7708 C.ar    1  UNL1       -0.0206
      5 C           0.3297    1.1966   25.1182 C.ar    1  UNL1       -0.0011
      6 C           0.5885    1.2884   23.6436 C.ar    1  UNL1        0.0366
      7 O           0.1424    2.4180   21.3468 O.3     1  UNL1       -0.4671
      8 C           0.0914    1.1822   20.4981 C.3     1  UNL1        0.2752
      9 C           0.8702    1.1190   19.2177 C.2     1  UNL1        0.2343
     10 O           0.6159    2.1252   18.1348 O.2     1  UNL1       -0.2858
     11 C           3.9694   -2.0894   18.6254 C.ar    1  UNL1       -0.0030
     12 C           3.0697   -2.1280   19.8250 C.ar    1  UNL1       -0.0011
     13 C           2.0367   -1.0586   20.0224 C.ar    1  UNL1        0.0219
     14 C           1.9033    0.0495   19.0203 C.ar    1  UNL1        0.1196
     15 N           2.8029    0.0881   17.8207 N.ar    1  UNL1       -0.2412
     16 C           3.8360   -0.9813   17.6233 C.ar    1  UNL1        0.0946
     17 C           4.7109   -4.5696   18.8459 C.3     1  UNL1        0.0051
     18 C           5.0025   -3.1589   18.4280 C.3     1  UNL1        0.0279
     19 C          -0.8930    2.0510   27.2454 C.3     1  UNL1        0.0468
     20 C           0.0567    1.2968   28.1280 C.3     1  UNL1        0.1369
     21 S           1.4259    1.7499   28.5403 S.3     1  UNL1       -0.0482
     22 C           2.0194    0.6901   29.4204 C.2     1  UNL1        0.2792
     23 O           3.3770    0.7312   30.0571 O.2     1  UNL1       -0.2625
     24 N           1.0170   -0.4180   29.5521 N.am    1  UNL1       -0.2460
     25 C          -0.1960   -0.0431   28.7533 C.2     1  UNL1        0.2392
     26 O          -1.4428   -0.8639   28.6058 O.2     1  UNL1       -0.2737
     27 H           1.1346   -1.2460   30.0715 H       1  UNL1        0.1583
@<TRIPOS>BOND
     1    17    18    1
     2    18    11    1
     3    11    12   ar
     4    12    13   ar
     5    13    14   ar
     6    14     9    1
     7     9    10    2
     8     9     8    1
     9     8     7    1
    10     7     1    1
    11     1     2   ar
    12     2     3   ar
    13     3     4   ar
    14     4    19    1
    15    19    20    1
    16    20    21    1
    17    21    22    1
    18    22    23    2
    19    22    24   am
    20    24    25   am
    21    25    26    2
    22     4     5   ar
    23     5     6   ar
    24    14    15   ar
    25    15    16   ar
    26    16    11   ar
    27     6     1   ar
    28    25    20    1
    29    24    27    1
