@<TRIPOS>MOLECULE
*****
 38 42 0 0 0
SMALL
GASTEIGER

@<TRIPOS>ATOM
      1 C          -3.3432  -17.4669   24.0890 C.3     1  UNL1        0.0545
      2 C          -3.6186  -17.6855   25.5472 C.3     1  UNL1        0.0162
      3 C          -4.7975  -16.8398   25.9282 C.3     1  UNL1        0.0098
      4 C          -5.6963  -16.4522   27.0648 C.3     1  UNL1        0.0090
      5 C          -6.7049  -15.4715   26.5445 C.3     1  UNL1        0.0956
      6 C          -6.4295  -15.2529   25.0863 C.3     1  UNL1        0.0171
      7 C          -5.2507  -16.0985   24.7054 C.3     1  UNL1        0.0706
      8 C          -4.3519  -16.4861   23.5687 C.3     1  UNL1        0.0243
      9 C          -5.7039  -15.3573   23.4826 C.2     1  UNL1        0.2250
     10 O          -4.7419  -14.4797   22.7380 O.2     1  UNL1       -0.2749
     11 N          -7.1191  -15.4937   23.0044 N.am    1  UNL1       -0.2750
     12 C          -7.5722  -14.7524   21.7816 C.3     1  UNL1        0.1000
     13 C          -8.9874  -14.8888   21.3035 C.3     1  UNL1        0.0670
     14 C          -9.9494  -15.7664   22.0481 C.ar    1  UNL1        0.0583
     15 N         -11.3646  -15.9027   21.5698 N.ar    1  UNL1       -0.2484
     16 C         -12.3266  -16.7803   22.3144 C.ar    1  UNL1        0.1023
     17 C         -11.8734  -17.5215   23.5372 C.ar    1  UNL1        0.0902
     18 C         -10.4582  -17.3852   24.0154 C.ar    1  UNL1        0.0040
     19 C          -9.4962  -16.5076   23.2708 C.ar    1  UNL1        0.0113
     20 C          -8.0811  -16.3712   23.7490 C.3     1  UNL1        0.1213
     21 C         -12.8354  -18.3991   24.2818 C.3     1  UNL1        0.4200
     22 F         -13.7974  -19.2767   25.0264 F       1  UNL1       -0.1658
     23 F         -13.9656  -17.4955   23.8867 F       1  UNL1       -0.1658
     24 F         -11.7052  -19.3028   24.6770 F       1  UNL1       -0.1658
     25 C          -7.7972  -14.8231   27.3424 C.3     1  UNL1        0.3975
     26 F          -8.8895  -14.1747   28.1403 F       1  UNL1       -0.1701
     27 F          -8.8239  -15.5733   26.5467 F       1  UNL1       -0.1701
     28 F          -6.7706  -14.0729   28.1381 F       1  UNL1       -0.1701
     29 N          -2.2509  -18.1153   23.2911 N.3     1  UNL1       -0.2975
     30 H          -1.4051  -17.5680   23.4508 H       1  UNL1        0.1232
     31 C          -3.5039  -19.1036   21.2410 C.3     1  UNL1        0.1591
     32 C          -3.6483  -19.2540   19.7555 C.3     1  UNL1        0.1729
     33 O          -2.6842  -18.5665   18.8348 O.3     1  UNL1       -0.3511
     34 C          -1.5756  -17.7286   19.3995 C.3     1  UNL1        0.1437
     35 C          -1.4311  -17.5781   20.8849 C.3     1  UNL1        0.0503
     36 C          -2.3953  -18.2657   21.8057 C.3     1  UNL1        0.0865
     37 C          -5.9412  -19.5426   22.0265 C.3     1  UNL1        0.1742
     38 O          -4.4680  -19.7911   22.1617 O.3     1  UNL1       -0.3496
@<TRIPOS>BOND
     1    37    38    1
     2    38    31    1
     3    31    32    1
     4    32    33    1
     5    33    34    1
     6    34    35    1
     7    35    36    1
     8    36    29    1
     9     1    29    1
    10     1     2    1
    11     3     2    1
    12     3     4    1
    13     4     5    1
    14     5    25    1
    15    25    26    1
    16    25    27    1
    17    25    28    1
    18     5     6    1
    19     6     7    1
    20     7     9    1
    21     9    10    2
    22     9    11   am
    23    11    12    1
    24    12    13    1
    25    13    14    1
    26    14    15   ar
    27    15    16   ar
    28    16    17   ar
    29    17    21    1
    30    21    22    1
    31    21    23    1
    32    21    24    1
    33    17    18   ar
    34    18    19   ar
    35    19    20    1
    36     7     8    1
    37    36    31    1
    38     8     1    1
    39     7     3    1
    40    20    11    1
    41    19    14   ar
    42    29    30    1
@<TRIPOS>MOLECULE
*****
 38 42 0 0 0
SMALL
GASTEIGER

@<TRIPOS>ATOM
      1 C          -0.1527    2.5799   21.0118 C.3     1  UNL1        0.0545
      2 C          -0.4213    1.2781   20.3167 C.3     1  UNL1        0.0162
      3 C           0.7924    0.4104   20.4724 C.3     1  UNL1        0.0098
      4 C           1.3765   -0.9303   20.1391 C.3     1  UNL1        0.0090
      5 C           2.7562   -0.9934   20.7244 C.3     1  UNL1        0.0956
      6 C           3.0248    0.3084   21.4194 C.3     1  UNL1        0.0171
      7 C           1.8111    1.1761   21.2637 C.3     1  UNL1        0.0706
      8 C           1.2270    2.5168   21.5971 C.3     1  UNL1        0.0243
      9 C           2.8298    1.9417   22.0550 C.2     1  UNL1        0.2250
     10 O           3.9959    2.5787   21.3591 O.2     1  UNL1       -0.2749
     11 N           2.6823    2.0703   23.5422 N.am    1  UNL1       -0.2750
     12 C           3.7010    2.8359   24.3335 C.3     1  UNL1        0.1000
     13 C           3.5535    2.9644   25.8207 C.3     1  UNL1        0.0670
     14 C           2.3873    2.3274   26.5165 C.ar    1  UNL1        0.0583
     15 N           2.2398    2.4560   28.0038 N.ar    1  UNL1       -0.2484
     16 C           1.0737    1.8190   28.6997 C.ar    1  UNL1        0.1023
     17 C           0.0550    1.0533   27.9083 C.ar    1  UNL1        0.0902
     18 C           0.2025    0.9248   26.4212 C.ar    1  UNL1        0.0040
     19 C           1.3687    1.5618   25.7253 C.ar    1  UNL1        0.0113
     20 C           1.5162    1.4332   24.2381 C.3     1  UNL1        0.1213
     21 C          -1.1112    0.4163   28.6042 C.3     1  UNL1        0.4200
     22 F          -2.2773   -0.2208   29.3001 F       1  UNL1       -0.1658
     23 F          -0.2042   -0.6455   29.1520 F       1  UNL1       -0.1658
     24 F          -2.0181    1.4781   28.0564 F       1  UNL1       -0.1658
     25 C           3.7014   -2.1545   20.6310 C.3     1  UNL1        0.3975
     26 F           4.6464   -3.3155   20.5375 F       1  UNL1       -0.1701
     27 F           3.7729   -2.2168   22.1280 F       1  UNL1       -0.1701
     28 F           3.6299   -2.0922   19.1340 F       1  UNL1       -0.1701
     29 N          -1.0978    3.7410   21.1052 N.3     1  UNL1       -0.2975
     30 H          -0.5646    4.5252   21.4807 H       1  UNL1        0.1232
     31 C          -3.6689    3.4044   21.2662 C.3     1  UNL1        0.1591
     32 C          -4.9151    3.2924   22.0935 C.3     1  UNL1        0.1729
     33 O          -4.8363    3.4048   23.5872 O.3     1  UNL1       -0.3511
     34 C          -3.5113    3.6293   24.2536 C.3     1  UNL1        0.1437
     35 C          -2.2652    3.7414   23.4263 C.3     1  UNL1        0.0503
     36 C          -2.3440    3.6289   21.9325 C.3     1  UNL1        0.0865
     37 C          -5.0080    3.6785   19.0567 C.3     1  UNL1        0.1742
     38 O          -3.7477    3.2920   19.7725 O.3     1  UNL1       -0.3496
@<TRIPOS>BOND
     1    37    38    1
     2    38    31    1
     3    31    32    1
     4    32    33    1
     5    33    34    1
     6    34    35    1
     7    35    36    1
     8    36    29    1
     9     1    29    1
    10     1     2    1
    11     3     2    1
    12     3     4    1
    13     4     5    1
    14     5    25    1
    15    25    26    1
    16    25    27    1
    17    25    28    1
    18     5     6    1
    19     6     7    1
    20     7     9    1
    21     9    10    2
    22     9    11   am
    23    11    12    1
    24    12    13    1
    25    13    14    1
    26    14    15   ar
    27    15    16   ar
    28    16    17   ar
    29    17    21    1
    30    21    22    1
    31    21    23    1
    32    21    24    1
    33    17    18   ar
    34    18    19   ar
    35    19    20    1
    36     7     8    1
    37    36    31    1
    38     8     1    1
    39     7     3    1
    40    20    11    1
    41    19    14   ar
    42    29    30    1
@<TRIPOS>MOLECULE
*****
 38 42 0 0 0
SMALL
GASTEIGER

@<TRIPOS>ATOM
      1 C           0.0326    2.7142   20.6225 C.3     1  UNL1        0.0545
      2 C          -0.2474    1.3636   20.0330 C.3     1  UNL1        0.0162
      3 C           0.9050    0.4637   20.3679 C.3     1  UNL1        0.0098
      4 C           1.4441   -0.9272   20.2106 C.3     1  UNL1        0.0090
      5 C           2.7696   -0.9924   20.9099 C.3     1  UNL1        0.0956
      6 C           3.0496    0.3581   21.4995 C.3     1  UNL1        0.0171
      7 C           1.8972    1.2581   21.1645 C.3     1  UNL1        0.0706
      8 C           1.3581    2.6489   21.3218 C.3     1  UNL1        0.0243
      9 C           2.8894    2.0524   21.9611 C.2     1  UNL1        0.2250
     10 O           4.0407    2.7223   21.2713 O.2     1  UNL1       -0.2749
     11 N           2.7302    2.1770   23.4474 N.am    1  UNL1       -0.2750
     12 C           3.7224    2.9713   24.2440 C.3     1  UNL1        0.1000
     13 C           3.5632    3.0959   25.7303 C.3     1  UNL1        0.0670
     14 C           2.4119    2.4260   26.4200 C.ar    1  UNL1        0.0583
     15 N           2.2527    2.5506   27.9064 N.ar    1  UNL1       -0.2484
     16 C           1.1014    1.8807   28.5961 C.ar    1  UNL1        0.1023
     17 C           0.1092    1.0863   27.7995 C.ar    1  UNL1        0.0902
     18 C           0.2684    0.9618   26.3132 C.ar    1  UNL1        0.0040
     19 C           1.4197    1.6316   25.6235 C.ar    1  UNL1        0.0113
     20 C           1.5789    1.5071   24.1372 C.3     1  UNL1        0.1213
     21 C          -1.0421    0.4165   28.4892 C.3     1  UNL1        0.4200
     22 F          -2.1935   -0.2534   29.1789 F       1  UNL1       -0.1658
     23 F          -0.1227   -0.6654   28.9733 F       1  UNL1       -0.1658
     24 F          -1.9616    1.4983   28.0051 F       1  UNL1       -0.1658
     25 C           3.6588   -2.1969   21.0033 C.3     1  UNL1        0.3975
     26 F           4.5481   -3.4012   21.0966 F       1  UNL1       -0.1701
     27 F           3.5919   -2.1303   22.5002 F       1  UNL1       -0.1701
     28 F           3.7258   -2.2634   19.5063 F       1  UNL1       -0.1701
     29 N          -0.8566    3.9186   20.5292 N.3     1  UNL1       -0.2975
     30 H          -1.1437    4.1471   21.4809 H       1  UNL1        0.1232
     31 C          -3.4123    3.4923   20.3367 C.3     1  UNL1        0.1591
     32 C          -4.6617    3.4396   19.5085 C.3     1  UNL1        0.1729
     33 O          -4.6051    3.7605   18.0443 O.3     1  UNL1       -0.3511
     34 C          -3.2989    4.1341   17.4084 C.3     1  UNL1        0.1437
     35 C          -2.0494    4.1868   18.2367 C.3     1  UNL1        0.0503
     36 C          -2.1061    3.8659   19.7009 C.3     1  UNL1        0.0865
     37 C          -4.7946    3.0652   22.4947 C.3     1  UNL1        0.1742
     38 O          -3.4689    3.1713   21.8009 O.3     1  UNL1       -0.3496
@<TRIPOS>BOND
     1    37    38    1
     2    38    31    1
     3    31    32    1
     4    32    33    1
     5    33    34    1
     6    34    35    1
     7    35    36    1
     8    36    29    1
     9     1    29    1
    10     1     2    1
    11     3     2    1
    12     3     4    1
    13     4     5    1
    14     5    25    1
    15    25    26    1
    16    25    27    1
    17    25    28    1
    18     5     6    1
    19     6     7    1
    20     7     9    1
    21     9    10    2
    22     9    11   am
    23    11    12    1
    24    12    13    1
    25    13    14    1
    26    14    15   ar
    27    15    16   ar
    28    16    17   ar
    29    17    21    1
    30    21    22    1
    31    21    23    1
    32    21    24    1
    33    17    18   ar
    34    18    19   ar
    35    19    20    1
    36     7     8    1
    37    36    31    1
    38     8     1    1
    39     7     3    1
    40    20    11    1
    41    19    14   ar
    42    29    30    1
@<TRIPOS>MOLECULE
*****
 38 42 0 0 0
SMALL
GASTEIGER

@<TRIPOS>ATOM
      1 C           7.2790   -0.0120   18.2149 C.3     1  UNL1        0.0545
      2 C           7.7826   -1.2243   18.9406 C.3     1  UNL1        0.0162
      3 C           6.6359   -2.1778   19.1015 C.3     1  UNL1        0.0098
      4 C           6.2385   -3.5164   19.6495 C.3     1  UNL1        0.0090
      5 C           4.7805   -3.7207   19.3619 C.3     1  UNL1        0.0956
      6 C           4.2769   -2.5084   18.6362 C.3     1  UNL1        0.0171
      7 C           5.4236   -1.5548   18.4753 C.3     1  UNL1        0.0706
      8 C           5.8210   -0.2162   17.9273 C.3     1  UNL1        0.0243
      9 C           4.2113   -0.9318   17.8490 C.2     1  UNL1        0.2250
     10 O           4.0514   -0.9363   16.3576 O.2     1  UNL1       -0.2749
     11 N           3.1588   -0.3043   18.7143 N.am    1  UNL1       -0.2750
     12 C           1.9465    0.3187   18.0881 C.3     1  UNL1        0.1000
     13 C           0.8941    0.9462   18.9533 C.3     1  UNL1        0.0670
     14 C           1.0540    0.9506   20.4447 C.ar    1  UNL1        0.0583
     15 N           0.0015    1.5781   21.3100 N.ar    1  UNL1       -0.2484
     16 C           0.1613    1.5826   22.8014 C.ar    1  UNL1        0.1023
     17 C           1.3737    0.9595   23.4276 C.ar    1  UNL1        0.0902
     18 C           2.4261    0.3321   22.5624 C.ar    1  UNL1        0.0040
     19 C           2.2662    0.3276   21.0710 C.ar    1  UNL1        0.0113
     20 C           3.3187   -0.2998   20.2057 C.3     1  UNL1        0.1213
     21 C           1.5336    0.9640   24.9191 C.3     1  UNL1        0.4200
     22 F           1.6934    0.9684   26.4105 F       1  UNL1       -0.1658
     23 F           0.0426    1.0024   25.0788 F       1  UNL1       -0.1658
     24 F           3.0245    0.9256   24.7594 F       1  UNL1       -0.1658
     25 C           3.9688   -4.9258   19.7346 C.3     1  UNL1        0.3975
     26 F           3.1570   -6.1308   20.1073 F       1  UNL1       -0.1701
     27 F           4.0428   -5.4138   18.3182 F       1  UNL1       -0.1701
     28 F           3.8947   -4.4378   21.1510 F       1  UNL1       -0.1701
     29 N           8.0907    1.1931   17.8422 N.3     1  UNL1       -0.2975
     30 H           8.7665    1.3366   18.5926 H       1  UNL1        0.1232
     31 C           6.9666    3.3396   18.7796 C.3     1  UNL1        0.1591
     32 C           6.2893    4.6580   18.5489 C.3     1  UNL1        0.1729
     33 O           6.0591    5.1483   17.1502 O.3     1  UNL1       -0.3511
     34 C           6.5060    4.3202   15.9820 C.3     1  UNL1        0.1437
     35 C           7.1832    3.0018   16.2127 C.3     1  UNL1        0.0503
     36 C           7.4135    2.5115   17.6115 C.3     1  UNL1        0.0865
     37 C           6.0829    2.1872   20.9339 C.3     1  UNL1        0.1742
     38 O           7.1968    2.8493   20.1783 O.3     1  UNL1       -0.3496
@<TRIPOS>BOND
     1    37    38    1
     2    38    31    1
     3    31    32    1
     4    32    33    1
     5    33    34    1
     6    34    35    1
     7    35    36    1
     8    36    29    1
     9     1    29    1
    10     1     2    1
    11     3     2    1
    12     3     4    1
    13     4     5    1
    14     5    25    1
    15    25    26    1
    16    25    27    1
    17    25    28    1
    18     5     6    1
    19     6     7    1
    20     7     9    1
    21     9    10    2
    22     9    11   am
    23    11    12    1
    24    12    13    1
    25    13    14    1
    26    14    15   ar
    27    15    16   ar
    28    16    17   ar
    29    17    21    1
    30    21    22    1
    31    21    23    1
    32    21    24    1
    33    17    18   ar
    34    18    19   ar
    35    19    20    1
    36     7     8    1
    37    36    31    1
    38     8     1    1
    39     7     3    1
    40    20    11    1
    41    19    14   ar
    42    29    30    1
@<TRIPOS>MOLECULE
*****
 38 42 0 0 0
SMALL
GASTEIGER

@<TRIPOS>ATOM
      1 C           6.1171   -0.0730   32.6635 C.3     1  UNL1        0.0545
      2 C           6.0904   -1.4218   33.3192 C.3     1  UNL1        0.0162
      3 C           6.3739   -2.4538   32.2683 C.3     1  UNL1        0.0098
      4 C           6.5326   -3.9252   32.0239 C.3     1  UNL1        0.0090
      5 C           6.8326   -4.1236   30.5677 C.3     1  UNL1        0.0956
      6 C           6.8593   -2.7748   29.9120 C.3     1  UNL1        0.0171
      7 C           6.5758   -1.7428   30.9629 C.3     1  UNL1        0.0706
      8 C           6.4171   -0.2714   31.2073 C.3     1  UNL1        0.0243
      9 C           6.7777   -1.0318   29.6577 C.2     1  UNL1        0.2250
     10 O           8.1592   -0.8755   29.0946 O.2     1  UNL1       -0.2749
     11 N           5.5981   -0.4770   28.9155 N.am    1  UNL1       -0.2750
     12 C           5.8000    0.2340   27.6103 C.3     1  UNL1        0.1000
     13 C           4.6204    0.7888   26.8682 C.3     1  UNL1        0.0670
     14 C           3.2389    0.6326   27.4313 C.ar    1  UNL1        0.0583
     15 N           2.0593    1.1874   26.6892 N.ar    1  UNL1       -0.2484
     16 C           0.6778    1.0311   27.2523 C.ar    1  UNL1        0.1023
     17 C           0.4760    0.3201   28.5576 C.ar    1  UNL1        0.0902
     18 C           1.6555   -0.2347   29.2997 C.ar    1  UNL1        0.0040
     19 C           3.0370   -0.0785   28.7366 C.ar    1  UNL1        0.0113
     20 C           4.2166   -0.6332   29.4787 C.3     1  UNL1        0.1213
     21 C          -0.9055    0.1638   29.1207 C.3     1  UNL1        0.4200
     22 F          -2.2870    0.0076   29.6838 F       1  UNL1       -0.1658
     23 F          -0.6176    1.2395   30.1256 F       1  UNL1       -0.1658
     24 F          -1.1935   -0.9119   28.1157 F       1  UNL1       -0.1658
     25 C           7.0651   -5.4398   29.8867 C.3     1  UNL1        0.3975
     26 F           7.2976   -6.7559   29.2057 F       1  UNL1       -0.1701
     27 F           7.9890   -5.8500   30.9949 F       1  UNL1       -0.1701
     28 F           6.1413   -5.0296   28.7785 F       1  UNL1       -0.1701
     29 N           5.8846    1.2432   33.3445 N.3     1  UNL1       -0.2975
     30 H           6.4191    1.2239   34.2130 H       1  UNL1        0.1232
     31 C           4.1256    1.9056   35.1382 C.3     1  UNL1        0.1591
     32 C           2.7319    2.3286   35.4969 C.3     1  UNL1        0.1729
     33 O           1.7034    2.5121   34.4205 O.3     1  UNL1       -0.3511
     34 C           2.0686    2.2726   32.9855 C.3     1  UNL1        0.1437
     35 C           3.4623    1.8497   32.6268 C.3     1  UNL1        0.0503
     36 C           4.4908    1.6661   33.7032 C.3     1  UNL1        0.0865
     37 C           5.4122    0.3570   36.7803 C.3     1  UNL1        0.1742
     38 O           5.1541    1.7221   36.2145 O.3     1  UNL1       -0.3496
@<TRIPOS>BOND
     1    37    38    1
     2    38    31    1
     3    31    32    1
     4    32    33    1
     5    33    34    1
     6    34    35    1
     7    35    36    1
     8    36    29    1
     9     1    29    1
    10     1     2    1
    11     3     2    1
    12     3     4    1
    13     4     5    1
    14     5    25    1
    15    25    26    1
    16    25    27    1
    17    25    28    1
    18     5     6    1
    19     6     7    1
    20     7     9    1
    21     9    10    2
    22     9    11   am
    23    11    12    1
    24    12    13    1
    25    13    14    1
    26    14    15   ar
    27    15    16   ar
    28    16    17   ar
    29    17    21    1
    30    21    22    1
    31    21    23    1
    32    21    24    1
    33    17    18   ar
    34    18    19   ar
    35    19    20    1
    36     7     8    1
    37    36    31    1
    38     8     1    1
    39     7     3    1
    40    20    11    1
    41    19    14   ar
    42    29    30    1
@<TRIPOS>MOLECULE
*****
 38 42 0 0 0
SMALL
GASTEIGER

@<TRIPOS>ATOM
      1 C           2.2765   -0.3834   20.2101 C.3     1  UNL1        0.0545
      2 C           0.8769   -0.0552   19.7816 C.3     1  UNL1        0.0162
      3 C           0.4924    1.2494   20.4142 C.3     1  UNL1        0.0098
      4 C          -0.6102    2.2585   20.5403 C.3     1  UNL1        0.0090
      5 C          -0.1298    3.3603   21.4376 C.3     1  UNL1        0.0956
      6 C           1.2697    3.0322   21.8661 C.3     1  UNL1        0.0171
      7 C           1.6543    1.7276   21.2336 C.3     1  UNL1        0.0706
      8 C           2.7569    0.7185   21.1075 C.3     1  UNL1        0.0243
      9 C           2.8161    2.2057   22.0530 C.2     1  UNL1        0.2250
     10 O           4.0432    2.7389   21.3748 O.2     1  UNL1       -0.2749
     11 N           2.7509    2.1506   23.5506 N.am    1  UNL1       -0.2750
     12 C           3.9128    2.6287   24.3699 C.3     1  UNL1        0.1000
     13 C           3.8476    2.5736   25.8675 C.3     1  UNL1        0.0670
     14 C           2.6205    2.0404   26.5456 C.ar    1  UNL1        0.0583
     15 N           2.5553    1.9853   28.0433 N.ar    1  UNL1       -0.2484
     16 C           1.3282    1.4521   28.7214 C.ar    1  UNL1        0.1023
     17 C           0.1663    0.9739   27.9020 C.ar    1  UNL1        0.0902
     18 C           0.2316    1.0290   26.4044 C.ar    1  UNL1        0.0040
     19 C           1.4586    1.5623   25.7263 C.ar    1  UNL1        0.0113
     20 C           1.5239    1.6174   24.2287 C.3     1  UNL1        0.1213
     21 C          -1.0608    0.4407   28.5801 C.3     1  UNL1        0.4200
     22 F          -2.2878   -0.0926   29.2583 F       1  UNL1       -0.1658
     23 F          -0.2537   -0.6856   29.1549 F       1  UNL1       -0.1658
     24 F          -1.8678    1.5669   28.0054 F       1  UNL1       -0.1658
     25 C          -0.9117    4.5768   21.8365 C.3     1  UNL1        0.3975
     26 F          -1.6936    5.7931   22.2352 F       1  UNL1       -0.1701
     27 F          -0.9345    4.0963   23.2572 F       1  UNL1       -0.1701
     28 F          -0.8890    5.0572   20.4157 F       1  UNL1       -0.1701
     29 N           3.0584   -1.5998   19.8113 N.3     1  UNL1       -0.2975
     30 H           3.3657   -2.0483   20.6743 H       1  UNL1        0.1232
     31 C           5.2890   -2.5602   18.8883 C.3     1  UNL1        0.1591
     32 C           6.5022   -2.4197   18.0175 C.3     1  UNL1        0.1729
     33 O           6.6981   -1.1782   17.1989 O.3     1  UNL1       -0.3511
     34 C           5.6807   -0.0771   17.2510 C.3     1  UNL1        0.1437
     35 C           4.4674   -0.2177   18.1218 C.3     1  UNL1        0.0503
     36 C           4.2716   -1.4593   18.9405 C.3     1  UNL1        0.0865
     37 C           4.3613   -4.9754   19.1263 C.3     1  UNL1        0.1742
     38 O           5.0931   -3.8017   19.7070 O.3     1  UNL1       -0.3496
@<TRIPOS>BOND
     1    37    38    1
     2    38    31    1
     3    31    32    1
     4    32    33    1
     5    33    34    1
     6    34    35    1
     7    35    36    1
     8    36    29    1
     9     1    29    1
    10     1     2    1
    11     3     2    1
    12     3     4    1
    13     4     5    1
    14     5    25    1
    15    25    26    1
    16    25    27    1
    17    25    28    1
    18     5     6    1
    19     6     7    1
    20     7     9    1
    21     9    10    2
    22     9    11   am
    23    11    12    1
    24    12    13    1
    25    13    14    1
    26    14    15   ar
    27    15    16   ar
    28    16    17   ar
    29    17    21    1
    30    21    22    1
    31    21    23    1
    32    21    24    1
    33    17    18   ar
    34    18    19   ar
    35    19    20    1
    36     7     8    1
    37    36    31    1
    38     8     1    1
    39     7     3    1
    40    20    11    1
    41    19    14   ar
    42    29    30    1
@<TRIPOS>MOLECULE
*****
 38 42 0 0 0
SMALL
GASTEIGER

@<TRIPOS>ATOM
      1 C           1.6824    2.6164   22.7988 C.3     1  UNL1        0.0545
      2 C           0.2444    2.5702   23.2230 C.3     1  UNL1        0.0162
      3 C           0.1905    2.0278   24.6204 C.3     1  UNL1        0.0098
      4 C          -0.7316    1.6640   25.7462 C.3     1  UNL1        0.0090
      5 C           0.1033    1.1501   26.8815 C.3     1  UNL1        0.0956
      6 C           1.5413    1.1962   26.4574 C.3     1  UNL1        0.0171
      7 C           1.5952    1.7387   25.0600 C.3     1  UNL1        0.0706
      8 C           2.5173    2.1025   23.9342 C.3     1  UNL1        0.0243
      9 C           2.9999    1.4496   25.4995 C.2     1  UNL1        0.2250
     10 O           3.5779    2.1666   26.6834 O.2     1  UNL1       -0.2749
     11 N           3.8267    0.4435   24.7550 N.am    1  UNL1       -0.2750
     12 C           5.2314    0.1544   25.1945 C.3     1  UNL1        0.1000
     13 C           6.0582   -0.8516   24.4500 C.3     1  UNL1        0.0670
     14 C           5.4802   -1.5687   23.2660 C.ar    1  UNL1        0.0583
     15 N           6.3070   -2.5748   22.5215 N.ar    1  UNL1       -0.2484
     16 C           5.7290   -3.2918   21.3375 C.ar    1  UNL1        0.1023
     17 C           4.3242   -3.0027   20.8980 C.ar    1  UNL1        0.0902
     18 C           3.4975   -1.9966   21.6425 C.ar    1  UNL1        0.0040
     19 C           4.0755   -1.2796   22.8265 C.ar    1  UNL1        0.0113
     20 C           3.2488   -0.2735   23.5710 C.3     1  UNL1        0.1213
     21 C           3.7462   -3.7197   19.7140 C.3     1  UNL1        0.4200
     22 F           3.1682   -4.4367   18.5301 F       1  UNL1       -0.1658
     23 F           4.8318   -4.7505   19.8083 F       1  UNL1       -0.1658
     24 F           2.6606   -2.6889   19.6198 F       1  UNL1       -0.1658
     25 C          -0.4099    0.6736   28.2081 C.3     1  UNL1        0.3975
     26 F          -0.9230    0.1972   29.5346 F       1  UNL1       -0.1701
     27 F           0.8958   -0.0188   28.4645 F       1  UNL1       -0.1701
     28 F          -1.7155    1.3660   27.9517 F       1  UNL1       -0.1701
     29 N           2.1956    3.0929   21.4722 N.3     1  UNL1       -0.2975
     30 H           1.5541    3.8182   21.1517 H       1  UNL1        0.1232
     31 C           1.1738    1.7629   19.4881 C.3     1  UNL1        0.1591
     32 C           1.3338    0.7942   18.3540 C.3     1  UNL1        0.1729
     33 O           2.6756    0.1869   18.0701 O.3     1  UNL1       -0.3511
     34 C           3.8574    0.5482   18.9202 C.3     1  UNL1        0.1437
     35 C           3.6975    1.5168   20.0543 C.3     1  UNL1        0.0503
     36 C           2.3556    2.1242   20.3382 C.3     1  UNL1        0.0865
     37 C          -0.5145    3.7185   19.2130 C.3     1  UNL1        0.1742
     38 O          -0.1680    2.3702   19.7720 O.3     1  UNL1       -0.3496
@<TRIPOS>BOND
     1    37    38    1
     2    38    31    1
     3    31    32    1
     4    32    33    1
     5    33    34    1
     6    34    35    1
     7    35    36    1
     8    36    29    1
     9     1    29    1
    10     1     2    1
    11     3     2    1
    12     3     4    1
    13     4     5    1
    14     5    25    1
    15    25    26    1
    16    25    27    1
    17    25    28    1
    18     5     6    1
    19     6     7    1
    20     7     9    1
    21     9    10    2
    22     9    11   am
    23    11    12    1
    24    12    13    1
    25    13    14    1
    26    14    15   ar
    27    15    16   ar
    28    16    17   ar
    29    17    21    1
    30    21    22    1
    31    21    23    1
    32    21    24    1
    33    17    18   ar
    34    18    19   ar
    35    19    20    1
    36     7     8    1
    37    36    31    1
    38     8     1    1
    39     7     3    1
    40    20    11    1
    41    19    14   ar
    42    29    30    1
@<TRIPOS>MOLECULE
*****
 38 42 0 0 0
SMALL
GASTEIGER

@<TRIPOS>ATOM
      1 C           2.4704    0.6190   23.9899 C.3     1  UNL1        0.0545
      2 C           3.4052   -0.5513   24.0705 C.3     1  UNL1        0.0162
      3 C           3.4130   -1.2313   22.7336 C.3     1  UNL1        0.0098
      4 C           3.9955   -2.3749   21.9571 C.3     1  UNL1        0.0090
      5 C           3.4256   -2.3316   20.5703 C.3     1  UNL1        0.0956
      6 C           2.4909   -1.1613   20.4896 C.3     1  UNL1        0.0171
      7 C           2.4830   -0.4812   21.8265 C.3     1  UNL1        0.0706
      8 C           1.9005    0.6623   22.6030 C.3     1  UNL1        0.0243
      9 C           1.5531    0.2688   20.9196 C.2     1  UNL1        0.2250
     10 O           0.0906   -0.0642   20.9033 O.2     1  UNL1       -0.2749
     11 N           2.0856    1.3520   20.0289 N.am    1  UNL1       -0.2750
     12 C           1.1557    2.1020   19.1219 C.3     1  UNL1        0.1000
     13 C           1.6882    3.1851   18.2313 C.3     1  UNL1        0.0670
     14 C           3.1507    3.5181   18.2476 C.ar    1  UNL1        0.0583
     15 N           3.6832    4.6013   17.3569 N.ar    1  UNL1       -0.2484
     16 C           5.1457    4.9343   17.3732 C.ar    1  UNL1        0.1023
     17 C           6.0756    4.1842   18.2802 C.ar    1  UNL1        0.0902
     18 C           5.5431    3.1011   19.1708 C.ar    1  UNL1        0.0040
     19 C           4.0806    2.7681   19.1545 C.ar    1  UNL1        0.0113
     20 C           3.5481    1.6850   20.0452 C.3     1  UNL1        0.1213
     21 C           7.5381    4.5172   18.2965 C.3     1  UNL1        0.4200
     22 F           9.0006    4.8502   18.3128 F       1  UNL1       -0.1658
     23 F           7.2053    5.9709   18.4579 F       1  UNL1       -0.1658
     24 F           7.8709    3.0635   18.1351 F       1  UNL1       -0.1658
     25 C           3.7361   -3.2903   19.4591 C.3     1  UNL1        0.3975
     26 F           4.0465   -4.2490   18.3481 F       1  UNL1       -0.1701
     27 F           3.8340   -4.4099   20.4525 F       1  UNL1       -0.1701
     28 F           3.6382   -2.1707   18.4658 F       1  UNL1       -0.1701
     29 N           2.1600    1.5778   25.1010 N.3     1  UNL1       -0.2975
     30 H           3.0469    1.9897   25.3909 H       1  UNL1        0.1232
     31 C           0.0016    1.2628   26.5125 C.3     1  UNL1        0.1591
     32 C          -0.6761    0.7734   27.7579 C.3     1  UNL1        0.1729
     33 O           0.1266    0.1096   28.8373 O.3     1  UNL1       -0.3511
     34 C           1.6072   -0.0648   28.6712 C.3     1  UNL1        0.1437
     35 C           2.2850    0.4246   27.4258 C.3     1  UNL1        0.0503
     36 C           1.4822    1.0884   26.3464 C.3     1  UNL1        0.0865
     37 C          -1.7110    3.0703   25.7709 C.3     1  UNL1        0.1742
     38 O          -0.8011    1.9265   25.4332 O.3     1  UNL1       -0.3496
@<TRIPOS>BOND
     1    37    38    1
     2    38    31    1
     3    31    32    1
     4    32    33    1
     5    33    34    1
     6    34    35    1
     7    35    36    1
     8    36    29    1
     9     1    29    1
    10     1     2    1
    11     3     2    1
    12     3     4    1
    13     4     5    1
    14     5    25    1
    15    25    26    1
    16    25    27    1
    17    25    28    1
    18     5     6    1
    19     6     7    1
    20     7     9    1
    21     9    10    2
    22     9    11   am
    23    11    12    1
    24    12    13    1
    25    13    14    1
    26    14    15   ar
    27    15    16   ar
    28    16    17   ar
    29    17    21    1
    30    21    22    1
    31    21    23    1
    32    21    24    1
    33    17    18   ar
    34    18    19   ar
    35    19    20    1
    36     7     8    1
    37    36    31    1
    38     8     1    1
    39     7     3    1
    40    20    11    1
    41    19    14   ar
    42    29    30    1
@<TRIPOS>MOLECULE
*****
 38 42 0 0 0
SMALL
GASTEIGER

@<TRIPOS>ATOM
      1 C           3.8943    0.1407   23.3243 C.3     1  UNL1        0.0545
      2 C           3.6689   -1.3248   23.5509 C.3     1  UNL1        0.0162
      3 C           3.9461   -2.0411   22.2625 C.3     1  UNL1        0.0098
      4 C           3.9782   -3.3894   21.6061 C.3     1  UNL1        0.0090
      5 C           4.3947   -3.1999   20.1776 C.3     1  UNL1        0.0956
      6 C           4.6201   -1.7344   19.9511 C.3     1  UNL1        0.0171
      7 C           4.3429   -1.0181   21.2395 C.3     1  UNL1        0.0706
      8 C           4.3108    0.3303   21.8958 C.3     1  UNL1        0.0243
      9 C           4.7396    0.0048   20.2167 C.2     1  UNL1        0.2250
     10 O           6.1255   -0.0065   19.6430 O.2     1  UNL1       -0.2749
     11 N           3.7503    1.0390   19.7674 N.am    1  UNL1       -0.2750
     12 C           4.1470    2.0619   18.7446 C.3     1  UNL1        0.1000
     13 C           3.1578    3.0961   18.2953 C.3     1  UNL1        0.0670
     14 C           1.7719    3.1074   18.8690 C.ar    1  UNL1        0.0583
     15 N           0.7826    4.1417   18.4197 N.ar    1  UNL1       -0.2484
     16 C          -0.6033    4.1530   18.9933 C.ar    1  UNL1        0.1023
     17 C          -1.0000    3.1300   20.0162 C.ar    1  UNL1        0.0902
     18 C          -0.0108    2.0958   20.4655 C.ar    1  UNL1        0.0040
     19 C           1.3752    2.0845   19.8918 C.ar    1  UNL1        0.0113
     20 C           2.3644    1.0503   20.3410 C.3     1  UNL1        0.1213
     21 C          -2.3859    3.1413   20.5899 C.3     1  UNL1        0.4200
     22 F          -3.7719    3.1526   21.1635 F       1  UNL1       -0.1658
     23 F          -2.9519    3.3603   19.2181 F       1  UNL1       -0.1658
     24 F          -1.8200    2.9222   21.9616 F       1  UNL1       -0.1658
     25 C           4.5573   -4.2854   19.1552 C.3     1  UNL1        0.3975
     26 F           4.7199   -5.3709   18.1328 F       1  UNL1       -0.1701
     27 F           3.5867   -5.1432   19.9115 F       1  UNL1       -0.1701
     28 F           5.5279   -3.4276   18.3989 F       1  UNL1       -0.1701
     29 N           3.7317    1.2263   24.3468 N.3     1  UNL1       -0.2975
     30 H           4.4088    1.0382   25.0861 H       1  UNL1        0.1232
     31 C           2.2224    1.0451   26.4537 C.3     1  UNL1        0.1591
     32 C           0.8963    1.2521   27.1234 C.3     1  UNL1        0.1729
     33 O          -0.2468    1.8473   26.3558 O.3     1  UNL1       -0.3511
     34 C          -0.0636    2.2355   24.9184 C.3     1  UNL1        0.1437
     35 C           1.2625    2.0285   24.2488 C.3     1  UNL1        0.0503
     36 C           2.4056    1.4333   25.0164 C.3     1  UNL1        0.0865
     37 C           3.5081   -1.0401   27.3191 C.3     1  UNL1        0.1742
     38 O           3.3654    0.4499   27.2213 O.3     1  UNL1       -0.3496
@<TRIPOS>BOND
     1    37    38    1
     2    38    31    1
     3    31    32    1
     4    32    33    1
     5    33    34    1
     6    34    35    1
     7    35    36    1
     8    36    29    1
     9     1    29    1
    10     1     2    1
    11     3     2    1
    12     3     4    1
    13     4     5    1
    14     5    25    1
    15    25    26    1
    16    25    27    1
    17    25    28    1
    18     5     6    1
    19     6     7    1
    20     7     9    1
    21     9    10    2
    22     9    11   am
    23    11    12    1
    24    12    13    1
    25    13    14    1
    26    14    15   ar
    27    15    16   ar
    28    16    17   ar
    29    17    21    1
    30    21    22    1
    31    21    23    1
    32    21    24    1
    33    17    18   ar
    34    18    19   ar
    35    19    20    1
    36     7     8    1
    37    36    31    1
    38     8     1    1
    39     7     3    1
    40    20    11    1
    41    19    14   ar
    42    29    30    1
