@<TRIPOS>MOLECULE
*****
 30 35 0 0 0
SMALL
GASTEIGER

@<TRIPOS>ATOM
      1 C          -4.1159  -18.9286   19.7993 C.ar    1  UNL1        0.2409
      2 N          -3.7264  -20.3339   19.4480 N.ar    1  UNL1       -0.1111
      3 N          -4.6795  -21.2650   20.1369 N.ar    1  UNL1       -0.1270
      4 C          -5.6581  -20.4351   20.9140 C.ar    1  UNL1        0.1744
      5 C          -6.8213  -20.8078   21.7846 C.ar    1  UNL1        0.0758
      6 C          -7.6361  -19.7365   22.4466 C.ar    1  UNL1        0.1390
      7 C          -7.2877  -18.2925   22.2379 C.ar    1  UNL1        0.0292
      8 C          -6.1245  -17.9198   21.3673 C.ar    1  UNL1        0.0828
      9 N          -5.3097  -18.9911   20.7053 N.ar    1  UNL1       -0.2599
     10 C          -8.1027  -17.2211   22.9000 C.3     1  UNL1        0.0268
     11 C          -8.6644  -16.5979   24.1433 C.3     1  UNL1        0.0048
     12 C          -8.9523  -15.9888   22.8032 C.3     1  UNL1        0.0048
     13 N          -3.4317  -17.6799   19.3274 N.pl3   1  UNL1       -0.1872
     14 H          -3.9141  -17.0406   18.7549 H       1  UNL1        0.1764
     15 C          -0.5932  -17.1306   20.1286 C.3     1  UNL1        0.1997
     16 S          -2.0124  -17.4052   19.7280 S.O2    1  UNL1        0.0580
     17 O          -2.4971  -16.6826   20.9498 O.2     1  UNL1       -0.1544
     18 O          -1.5277  -18.1279   18.5062 O.2     1  UNL1       -0.1544
     19 O          -8.7994  -20.1091   23.3173 O.3     1  UNL1       -0.4756
     20 C         -10.1545  -20.3188   22.7092 C.3     1  UNL1        0.2051
     21 C         -10.8411  -19.1894   21.9999 C.3     1  UNL1        0.0404
     22 C         -11.8205  -18.3254   22.7376 C.3     1  UNL1        0.0036
     23 C         -12.5071  -17.1961   22.0283 C.3     1  UNL1        0.0001
     24 C         -12.2144  -16.9307   20.5813 C.3     1  UNL1        0.0000
     25 C         -11.2350  -17.7947   19.8436 C.3     1  UNL1        0.0001
     26 C         -11.3788  -18.9363   22.9233 C.3     1  UNL1        0.0000
     27 C         -12.1132  -18.5907   24.1847 C.3     1  UNL1        0.0001
     28 C         -12.7999  -17.4614   23.4754 C.3     1  UNL1        0.0000
     29 C         -11.1339  -19.4547   23.4469 C.3     1  UNL1        0.0036
     30 C         -10.5484  -18.9241   20.5529 C.3     1  UNL1        0.0036
@<TRIPOS>BOND
     1    15    16    1
     2    16    17    2
     3    16    18    2
     4    16    13    1
     5    13     1    1
     6     1     2   ar
     7     2     3   ar
     8     3     4   ar
     9     4     5   ar
    10     5     6   ar
    11     6    19    1
    12    19    20    1
    13    20    21    1
    14    21    22    1
    15    22    23    1
    16    23    24    1
    17    24    25    1
    18    25    26    1
    19    26    27    1
    20    27    28    1
    21    27    29    1
    22    25    30    1
    23     6     7   ar
    24     7    10    1
    25    10    11    1
    26    11    12    1
    27     7     8   ar
    28     8     9   ar
    29     9     1   ar
    30     9     4   ar
    31    29    21    1
    32    12    10    1
    33    30    21    1
    34    28    23    1
    35    13    14    1
@<TRIPOS>MOLECULE
*****
 30 35 0 0 0
SMALL
GASTEIGER

@<TRIPOS>ATOM
      1 C          -4.4635  -18.9558   21.7484 C.ar    1  UNL1        0.2409
      2 N          -4.5680  -17.8523   22.7590 N.ar    1  UNL1       -0.1111
      3 N          -5.9819  -17.3516   22.7540 N.ar    1  UNL1       -0.1270
      4 C          -6.7513  -18.1457   21.7404 C.ar    1  UNL1        0.1744
      5 C          -8.1852  -18.0940   21.3030 C.ar    1  UNL1        0.0758
      6 C          -8.6806  -19.0338   20.2441 C.ar    1  UNL1        0.1390
      7 C          -7.7421  -20.0253   19.6226 C.ar    1  UNL1        0.0292
      8 C          -6.3083  -20.0769   20.0599 C.ar    1  UNL1        0.0828
      9 N          -5.8129  -19.1371   21.1188 N.ar    1  UNL1       -0.2599
     10 C          -8.2376  -20.9651   18.5636 C.3     1  UNL1        0.0268
     11 C          -8.1606  -22.2888   17.8622 C.3     1  UNL1        0.0048
     12 C          -9.1727  -21.2692   17.4309 C.3     1  UNL1        0.0048
     13 N          -3.2268  -19.7403   21.4242 N.pl3   1  UNL1       -0.1872
     14 H          -3.1573  -20.6842   21.6955 H       1  UNL1        0.1764
     15 C          -0.9649  -18.4332   19.9492 C.3     1  UNL1        0.1997
     16 S          -2.0958  -19.0867   20.6867 S.O2    1  UNL1        0.0580
     17 O          -2.8532  -19.2285   19.3998 O.2     1  UNL1       -0.1544
     18 O          -1.3385  -18.9450   21.9737 O.2     1  UNL1       -0.1544
     19 O         -10.1145  -18.9822   19.8067 O.3     1  UNL1       -0.4756
     20 C         -11.1694  -19.6833   20.6101 C.3     1  UNL1        0.2051
     21 C         -11.2618  -19.4535   22.0896 C.3     1  UNL1        0.0404
     22 C         -12.1028  -18.3321   22.6233 C.3     1  UNL1        0.0036
     23 C         -12.1952  -18.1024   24.1027 C.3     1  UNL1        0.0001
     24 C         -11.4465  -18.9941   25.0484 C.3     1  UNL1        0.0000
     25 C         -10.6054  -20.1156   24.5146 C.3     1  UNL1        0.0001
     26 C         -11.9337  -18.6026   21.9154 C.3     1  UNL1        0.0000
     27 C         -12.8515  -17.4403   21.6777 C.3     1  UNL1        0.0001
     28 C         -12.9439  -17.2106   23.1571 C.3     1  UNL1        0.0000
     29 C         -12.0105  -18.5618   21.1439 C.3     1  UNL1        0.0036
     30 C         -10.5131  -20.3453   23.0352 C.3     1  UNL1        0.0036
@<TRIPOS>BOND
     1    15    16    1
     2    16    17    2
     3    16    18    2
     4    16    13    1
     5    13     1    1
     6     1     2   ar
     7     2     3   ar
     8     3     4   ar
     9     4     5   ar
    10     5     6   ar
    11     6    19    1
    12    19    20    1
    13    20    21    1
    14    21    22    1
    15    22    23    1
    16    23    24    1
    17    24    25    1
    18    25    26    1
    19    26    27    1
    20    27    28    1
    21    27    29    1
    22    25    30    1
    23     6     7   ar
    24     7    10    1
    25    10    11    1
    26    11    12    1
    27     7     8   ar
    28     8     9   ar
    29     9     1   ar
    30     9     4   ar
    31    29    21    1
    32    12    10    1
    33    30    21    1
    34    28    23    1
    35    13    14    1
@<TRIPOS>MOLECULE
*****
 30 35 0 0 0
SMALL
GASTEIGER

@<TRIPOS>ATOM
      1 C         -10.5354  -18.4892   19.9773 C.ar    1  UNL1        0.2409
      2 N         -10.2909  -19.6639   19.0772 N.ar    1  UNL1       -0.1111
      3 N          -8.9226  -20.2006   19.3770 N.ar    1  UNL1       -0.1270
      4 C          -8.3215  -19.3575   20.4623 C.ar    1  UNL1        0.1744
      5 C          -6.9953  -19.4164   21.1606 C.ar    1  UNL1        0.0758
      6 C          -6.6659  -18.4175   22.2300 C.ar    1  UNL1        0.1390
      7 C          -7.6626  -17.3597   22.6010 C.ar    1  UNL1        0.0292
      8 C          -8.9888  -17.3009   21.9027 C.ar    1  UNL1        0.0828
      9 N          -9.3182  -18.2998   20.8333 N.ar    1  UNL1       -0.2599
     10 C          -7.3331  -16.3608   23.6704 C.3     1  UNL1        0.0268
     11 C          -7.7534  -15.5319   24.8478 C.3     1  UNL1        0.0048
     12 C          -6.3420  -15.4595   24.3452 C.3     1  UNL1        0.0048
     13 N         -11.7787  -17.6509   20.0148 N.pl3   1  UNL1       -0.1872
     14 H         -12.3934  -17.6473   19.2458 H       1  UNL1        0.1764
     15 C         -12.3925  -15.9854   22.4334 C.3     1  UNL1        0.1997
     16 S         -12.0856  -16.8181   21.2242 S.O2    1  UNL1        0.0580
     17 O         -12.6985  -18.0134   21.8917 O.2     1  UNL1       -0.1544
     18 O         -11.4727  -15.6228   20.5566 O.2     1  UNL1       -0.1544
     19 O          -5.3396  -18.4763   22.9283 O.3     1  UNL1       -0.4756
     20 C          -4.2270  -19.3041   22.3567 C.3     1  UNL1        0.2051
     21 C          -3.3804  -18.7578   21.2454 C.3     1  UNL1        0.0404
     22 C          -2.5764  -17.5096   21.4591 C.3     1  UNL1        0.0036
     23 C          -1.7298  -16.9634   20.3479 C.3     1  UNL1        0.0001
     24 C          -1.6872  -17.6654   19.0229 C.3     1  UNL1        0.0000
     25 C          -2.4912  -18.9135   18.8092 C.3     1  UNL1        0.0001
     26 C          -3.0586  -17.9336   21.8958 C.3     1  UNL1        0.0000
     27 C          -2.6190  -16.8077   22.7841 C.3     1  UNL1        0.0001
     28 C          -1.7724  -16.2615   21.6728 C.3     1  UNL1        0.0000
     29 C          -3.4230  -18.0559   22.5704 C.3     1  UNL1        0.0036
     30 C          -3.3378  -19.4597   19.9205 C.3     1  UNL1        0.0036
@<TRIPOS>BOND
     1    15    16    1
     2    16    17    2
     3    16    18    2
     4    16    13    1
     5    13     1    1
     6     1     2   ar
     7     2     3   ar
     8     3     4   ar
     9     4     5   ar
    10     5     6   ar
    11     6    19    1
    12    19    20    1
    13    20    21    1
    14    21    22    1
    15    22    23    1
    16    23    24    1
    17    24    25    1
    18    25    26    1
    19    26    27    1
    20    27    28    1
    21    27    29    1
    22    25    30    1
    23     6     7   ar
    24     7    10    1
    25    10    11    1
    26    11    12    1
    27     7     8   ar
    28     8     9   ar
    29     9     1   ar
    30     9     4   ar
    31    29    21    1
    32    12    10    1
    33    30    21    1
    34    28    23    1
    35    13    14    1
@<TRIPOS>MOLECULE
*****
 30 35 0 0 0
SMALL
GASTEIGER

@<TRIPOS>ATOM
      1 C         -10.2931  -17.1644   21.9804 C.ar    1  UNL1        0.2409
      2 N          -9.5120  -16.3665   22.9820 N.ar    1  UNL1       -0.1111
      3 N          -8.0704  -16.7653   22.8694 N.ar    1  UNL1       -0.1270
      4 C          -7.9605  -17.8096   21.7983 C.ar    1  UNL1        0.1744
      5 C          -6.7871  -18.5678   21.2523 C.ar    1  UNL1        0.0758
      6 C          -6.9874  -19.5727   20.1568 C.ar    1  UNL1        0.1390
      7 C          -8.3612  -19.8194   19.6074 C.ar    1  UNL1        0.0292
      8 C          -9.5346  -19.0612   20.1534 C.ar    1  UNL1        0.0828
      9 N          -9.3343  -18.0563   21.2489 N.ar    1  UNL1       -0.2599
     10 C          -8.5615  -20.8243   18.5119 C.3     1  UNL1        0.0268
     11 C          -9.0449  -21.1641   17.1332 C.3     1  UNL1        0.0048
     12 C          -8.4250  -22.2252   17.9933 C.3     1  UNL1        0.0048
     13 N         -11.7733  -17.0846   21.7507 N.pl3   1  UNL1       -0.1872
     14 H         -12.1209  -16.7576   20.8896 H       1  UNL1        0.1764
     15 C         -13.6744  -17.9211   23.9155 C.3     1  UNL1        0.1997
     16 S         -12.7239  -17.5028   22.8332 S.O2    1  UNL1        0.0580
     17 O         -12.1808  -18.8996   22.7703 O.2     1  UNL1       -0.1544
     18 O         -13.2670  -16.1060   22.8959 O.2     1  UNL1       -0.1544
     19 O          -5.8139  -20.3309   19.6108 O.3     1  UNL1       -0.4756
     20 C          -4.6203  -20.5937   20.4804 C.3     1  UNL1        0.2051
     21 C          -3.8657  -19.4468   21.0848 C.3     1  UNL1        0.0404
     22 C          -2.9747  -18.5994   20.2258 C.3     1  UNL1        0.0036
     23 C          -2.2201  -17.4526   20.8302 C.3     1  UNL1        0.0001
     24 C          -2.3565  -17.1532   22.2937 C.3     1  UNL1        0.0000
     25 C          -3.2474  -18.0006   23.1527 C.3     1  UNL1        0.0001
     26 C          -3.4315  -19.2152   20.1032 C.3     1  UNL1        0.0000
     27 C          -2.8383  -18.8988   18.7623 C.3     1  UNL1        0.0001
     28 C          -2.0837  -17.7520   19.3667 C.3     1  UNL1        0.0000
     29 C          -3.7293  -19.7462   19.6213 C.3     1  UNL1        0.0036
     30 C          -4.0021  -19.1474   22.5483 C.3     1  UNL1        0.0036
@<TRIPOS>BOND
     1    15    16    1
     2    16    17    2
     3    16    18    2
     4    16    13    1
     5    13     1    1
     6     1     2   ar
     7     2     3   ar
     8     3     4   ar
     9     4     5   ar
    10     5     6   ar
    11     6    19    1
    12    19    20    1
    13    20    21    1
    14    21    22    1
    15    22    23    1
    16    23    24    1
    17    24    25    1
    18    25    26    1
    19    26    27    1
    20    27    28    1
    21    27    29    1
    22    25    30    1
    23     6     7   ar
    24     7    10    1
    25    10    11    1
    26    11    12    1
    27     7     8   ar
    28     8     9   ar
    29     9     1   ar
    30     9     4   ar
    31    29    21    1
    32    12    10    1
    33    30    21    1
    34    28    23    1
    35    13    14    1
@<TRIPOS>MOLECULE
*****
 30 35 0 0 0
SMALL
GASTEIGER

@<TRIPOS>ATOM
      1 C          -4.7424  -17.1834   23.5032 C.ar    1  UNL1        0.2409
      2 N          -5.1106  -16.0480   24.4116 N.ar    1  UNL1       -0.1111
      3 N          -6.5341  -15.6700   24.1274 N.ar    1  UNL1       -0.1270
      4 C          -7.0456  -16.5717   23.0433 C.ar    1  UNL1        0.1744
      5 C          -8.3767  -16.6618   22.3576 C.ar    1  UNL1        0.0758
      6 C          -8.6003  -17.6874   21.2862 C.ar    1  UNL1        0.1390
      7 C          -7.4930  -18.6228   20.9003 C.ar    1  UNL1        0.0292
      8 C          -6.1620  -18.5326   21.5860 C.ar    1  UNL1        0.0828
      9 N          -5.9383  -17.5070   22.6575 N.ar    1  UNL1       -0.2599
     10 C          -7.7168  -19.6484   19.8288 C.3     1  UNL1        0.0268
     11 C          -7.3426  -20.9443   19.1724 C.3     1  UNL1        0.0048
     12 C          -8.4784  -20.1289   18.6293 C.3     1  UNL1        0.0048
     13 N          -3.4119  -17.8740   23.4497 N.pl3   1  UNL1       -0.1872
     14 H          -3.0625  -18.3318   24.2482 H       1  UNL1        0.1764
     15 C          -1.8156  -17.8600   20.9097 C.3     1  UNL1        0.1997
     16 S          -2.6137  -17.8669   22.1796 S.O2    1  UNL1        0.0580
     17 O          -2.6328  -19.3666   22.1594 O.2     1  UNL1       -0.1544
     18 O          -2.5946  -16.3672   22.2000 O.2     1  UNL1       -0.1544
     19 O          -9.9314  -17.7776   20.6004 O.3     1  UNL1       -0.4756
     20 C         -10.9198  -18.8265   21.0163 C.3     1  UNL1        0.2051
     21 C         -11.6604  -18.6869   22.3133 C.3     1  UNL1        0.0404
     22 C         -11.1394  -19.3565   23.5503 C.3     1  UNL1        0.0036
     23 C         -11.8800  -19.2169   24.8472 C.3     1  UNL1        0.0001
     24 C         -13.1416  -18.4078   24.9071 C.3     1  UNL1        0.0000
     25 C         -13.6626  -17.7382   23.6701 C.3     1  UNL1        0.0001
     26 C         -10.9069  -19.3119   22.8108 C.3     1  UNL1        0.0000
     27 C          -9.8777  -20.1656   23.4904 C.3     1  UNL1        0.0001
     28 C         -10.6183  -20.0260   24.7873 C.3     1  UNL1        0.0000
     29 C         -10.3988  -19.4961   22.2534 C.3     1  UNL1        0.0036
     30 C         -12.9220  -17.8778   22.3732 C.3     1  UNL1        0.0036
@<TRIPOS>BOND
     1    15    16    1
     2    16    17    2
     3    16    18    2
     4    16    13    1
     5    13     1    1
     6     1     2   ar
     7     2     3   ar
     8     3     4   ar
     9     4     5   ar
    10     5     6   ar
    11     6    19    1
    12    19    20    1
    13    20    21    1
    14    21    22    1
    15    22    23    1
    16    23    24    1
    17    24    25    1
    18    25    26    1
    19    26    27    1
    20    27    28    1
    21    27    29    1
    22    25    30    1
    23     6     7   ar
    24     7    10    1
    25    10    11    1
    26    11    12    1
    27     7     8   ar
    28     8     9   ar
    29     9     1   ar
    30     9     4   ar
    31    29    21    1
    32    12    10    1
    33    30    21    1
    34    28    23    1
    35    13    14    1
@<TRIPOS>MOLECULE
*****
 30 35 0 0 0
SMALL
GASTEIGER

@<TRIPOS>ATOM
      1 C          -4.1565  -16.8464   23.4744 C.ar    1  UNL1        0.2409
      2 N          -4.7795  -15.7736   24.3175 N.ar    1  UNL1       -0.1111
      3 N          -6.2694  -15.8898   24.1891 N.ar    1  UNL1       -0.1270
      4 C          -6.5673  -17.0345   23.2665 C.ar    1  UNL1        0.1744
      5 C          -7.8588  -17.6148   22.7716 C.ar    1  UNL1        0.0758
      6 C          -7.8445  -18.7863   21.8350 C.ar    1  UNL1        0.1390
      7 C          -6.5386  -19.3775   21.3933 C.ar    1  UNL1        0.0292
      8 C          -5.2470  -18.7972   21.8882 C.ar    1  UNL1        0.0828
      9 N          -5.2614  -17.6257   22.8248 N.ar    1  UNL1       -0.2599
     10 C          -6.5244  -20.5491   20.4567 C.3     1  UNL1        0.0268
     11 C          -5.9083  -21.8371   19.9966 C.3     1  UNL1        0.0048
     12 C          -7.1157  -21.2903   19.2944 C.3     1  UNL1        0.0048
     13 N          -2.6866  -17.0961   23.3097 N.pl3   1  UNL1       -0.1872
     14 H          -2.1205  -17.2429   24.1017 H       1  UNL1        0.1764
     15 C          -1.4720  -17.1482   20.5670 C.3     1  UNL1        0.1997
     16 S          -2.0793  -17.1222   21.9383 S.O2    1  UNL1        0.0580
     17 O          -2.5140  -15.7035   21.7189 O.2     1  UNL1       -0.1544
     18 O          -1.6446  -18.5409   22.1578 O.2     1  UNL1       -0.1544
     19 O          -9.1362  -19.3667   21.3401 O.3     1  UNL1       -0.4756
     20 C         -10.0836  -20.0181   22.3034 C.3     1  UNL1        0.2051
     21 C         -11.2510  -19.2470   22.8445 C.3     1  UNL1        0.0404
     22 C         -11.9890  -18.2854   21.9611 C.3     1  UNL1        0.0036
     23 C         -13.1563  -17.5143   22.5023 C.3     1  UNL1        0.0001
     24 C         -13.5855  -17.7049   23.9269 C.3     1  UNL1        0.0000
     25 C         -12.8475  -18.6666   24.8103 C.3     1  UNL1        0.0001
     26 C         -11.3815  -18.7600   21.8690 C.3     1  UNL1        0.0000
     27 C         -11.5598  -18.0947   20.5365 C.3     1  UNL1        0.0001
     28 C         -12.7271  -17.3237   21.0777 C.3     1  UNL1        0.0000
     29 C         -10.8217  -19.0564   21.4199 C.3     1  UNL1        0.0036
     30 C         -11.6802  -19.4376   24.2691 C.3     1  UNL1        0.0036
@<TRIPOS>BOND
     1    15    16    1
     2    16    17    2
     3    16    18    2
     4    16    13    1
     5    13     1    1
     6     1     2   ar
     7     2     3   ar
     8     3     4   ar
     9     4     5   ar
    10     5     6   ar
    11     6    19    1
    12    19    20    1
    13    20    21    1
    14    21    22    1
    15    22    23    1
    16    23    24    1
    17    24    25    1
    18    25    26    1
    19    26    27    1
    20    27    28    1
    21    27    29    1
    22    25    30    1
    23     6     7   ar
    24     7    10    1
    25    10    11    1
    26    11    12    1
    27     7     8   ar
    28     8     9   ar
    29     9     1   ar
    30     9     4   ar
    31    29    21    1
    32    12    10    1
    33    30    21    1
    34    28    23    1
    35    13    14    1
@<TRIPOS>MOLECULE
*****
 30 35 0 0 0
SMALL
GASTEIGER

@<TRIPOS>ATOM
      1 C          -9.9956  -16.8670   22.3993 C.ar    1  UNL1        0.2409
      2 N          -9.2170  -16.2390   23.5172 N.ar    1  UNL1       -0.1111
      3 N          -7.8397  -16.8330   23.5135 N.ar    1  UNL1       -0.1270
      4 C          -7.7669  -17.8281   22.3934 C.ar    1  UNL1        0.1744
      5 C          -6.6596  -18.7177   21.9115 C.ar    1  UNL1        0.0758
      6 C          -6.8847  -19.6284   20.7411 C.ar    1  UNL1        0.1390
      7 C          -8.2171  -19.6494   20.0525 C.ar    1  UNL1        0.0292
      8 C          -9.3245  -18.7597   20.5343 C.ar    1  UNL1        0.0828
      9 N          -9.0994  -17.8491   21.7048 N.ar    1  UNL1       -0.2599
     10 C          -8.4422  -20.5601   18.8820 C.3     1  UNL1        0.0268
     11 C          -8.2130  -21.8738   18.1953 C.3     1  UNL1        0.0048
     12 C          -9.0612  -20.8236   17.5414 C.3     1  UNL1        0.0048
     13 N         -11.4202  -16.5657   22.0392 N.pl3   1  UNL1       -0.1872
     14 H         -12.1253  -16.6319   22.7231 H       1  UNL1        0.1764
     15 C         -12.1207  -15.7616   19.2351 C.3     1  UNL1        0.1997
     16 S         -11.7705  -16.1637   20.6371 S.O2    1  UNL1        0.0580
     17 O         -10.5210  -15.3372   20.5620 O.2     1  UNL1       -0.1544
     18 O         -13.0200  -16.9902   20.7123 O.2     1  UNL1       -0.1544
     19 O          -5.7773  -20.5181   20.2592 O.3     1  UNL1       -0.4756
     20 C          -4.4280  -20.4564   20.9114 C.3     1  UNL1        0.2051
     21 C          -3.4593  -19.3763   20.5302 C.3     1  UNL1        0.0404
     22 C          -2.8537  -18.5040   21.5895 C.3     1  UNL1        0.0036
     23 C          -1.8852  -17.4240   21.2082 C.3     1  UNL1        0.0001
     24 C          -1.5222  -17.2163   19.7677 C.3     1  UNL1        0.0000
     25 C          -2.1277  -18.0887   18.7084 C.3     1  UNL1        0.0001
     26 C          -3.3568  -19.0954   21.5867 C.3     1  UNL1        0.0000
     27 C          -3.2167  -18.7116   23.0300 C.3     1  UNL1        0.0001
     28 C          -2.2481  -17.6316   22.6488 C.3     1  UNL1        0.0000
     29 C          -3.8223  -19.5840   21.9707 C.3     1  UNL1        0.0036
     30 C          -3.0963  -19.1687   19.0896 C.3     1  UNL1        0.0036
@<TRIPOS>BOND
     1    15    16    1
     2    16    17    2
     3    16    18    2
     4    16    13    1
     5    13     1    1
     6     1     2   ar
     7     2     3   ar
     8     3     4   ar
     9     4     5   ar
    10     5     6   ar
    11     6    19    1
    12    19    20    1
    13    20    21    1
    14    21    22    1
    15    22    23    1
    16    23    24    1
    17    24    25    1
    18    25    26    1
    19    26    27    1
    20    27    28    1
    21    27    29    1
    22    25    30    1
    23     6     7   ar
    24     7    10    1
    25    10    11    1
    26    11    12    1
    27     7     8   ar
    28     8     9   ar
    29     9     1   ar
    30     9     4   ar
    31    29    21    1
    32    12    10    1
    33    30    21    1
    34    28    23    1
    35    13    14    1
@<TRIPOS>MOLECULE
*****
 30 35 0 0 0
SMALL
GASTEIGER

@<TRIPOS>ATOM
      1 C          -6.8774  -15.7029   24.8821 C.ar    1  UNL1        0.2409
      2 N          -7.7492  -15.4326   26.0725 N.ar    1  UNL1       -0.1111
      3 N          -8.8712  -16.4281   26.0608 N.ar    1  UNL1       -0.1270
      4 C          -8.6928  -17.3136   24.8633 C.ar    1  UNL1        0.1744
      5 C          -9.4932  -18.4702   24.3421 C.ar    1  UNL1        0.0758
      6 C          -9.0614  -19.1785   23.0924 C.ar    1  UNL1        0.1390
      7 C          -7.8292  -18.7303   22.3639 C.ar    1  UNL1        0.0292
      8 C          -7.0288  -17.5737   22.8851 C.ar    1  UNL1        0.0828
      9 N          -7.4606  -16.8654   24.1348 N.ar    1  UNL1       -0.2599
     10 C          -7.3973  -19.4387   21.1142 C.3     1  UNL1        0.0268
     11 C          -6.4040  -20.2906   20.3811 C.3     1  UNL1        0.0048
     12 C          -7.6429  -19.8137   19.6828 C.3     1  UNL1        0.0048
     13 N          -5.6398  -14.9438   24.5052 N.pl3   1  UNL1       -0.1872
     14 H          -5.5419  -14.0001   24.7680 H       1  UNL1        0.1764
     15 C          -3.4626  -16.3017   22.9507 C.3     1  UNL1        0.1997
     16 S          -4.5511  -15.6228   23.7279 S.O2    1  UNL1        0.0580
     17 O          -4.4590  -16.6839   24.7840 O.2     1  UNL1       -0.1544
     18 O          -4.6434  -14.5615   22.6718 O.2     1  UNL1       -0.1544
     19 O          -9.8618  -20.3351   22.5712 O.3     1  UNL1       -0.4756
     20 C         -11.1934  -20.0946   21.9239 C.3     1  UNL1        0.2051
     21 C         -11.8266  -18.7365   21.9931 C.3     1  UNL1        0.0404
     22 C         -11.6707  -17.7773   20.8505 C.3     1  UNL1        0.0036
     23 C         -12.3038  -16.4193   20.9197 C.3     1  UNL1        0.0001
     24 C         -13.0929  -16.0205   22.1314 C.3     1  UNL1        0.0000
     25 C         -13.2488  -16.9797   23.2740 C.3     1  UNL1        0.0001
     26 C         -11.4272  -18.4997   20.9980 C.3     1  UNL1        0.0000
     27 C         -10.8816  -18.1761   19.6387 C.3     1  UNL1        0.0001
     28 C         -11.5148  -16.8181   19.7079 C.3     1  UNL1        0.0000
     29 C         -11.0375  -19.1353   20.7813 C.3     1  UNL1        0.0036
     30 C         -12.6157  -18.3377   23.2048 C.3     1  UNL1        0.0036
@<TRIPOS>BOND
     1    15    16    1
     2    16    17    2
     3    16    18    2
     4    16    13    1
     5    13     1    1
     6     1     2   ar
     7     2     3   ar
     8     3     4   ar
     9     4     5   ar
    10     5     6   ar
    11     6    19    1
    12    19    20    1
    13    20    21    1
    14    21    22    1
    15    22    23    1
    16    23    24    1
    17    24    25    1
    18    25    26    1
    19    26    27    1
    20    27    28    1
    21    27    29    1
    22    25    30    1
    23     6     7   ar
    24     7    10    1
    25    10    11    1
    26    11    12    1
    27     7     8   ar
    28     8     9   ar
    29     9     1   ar
    30     9     4   ar
    31    29    21    1
    32    12    10    1
    33    30    21    1
    34    28    23    1
    35    13    14    1
@<TRIPOS>MOLECULE
*****
 30 35 0 0 0
SMALL
GASTEIGER

@<TRIPOS>ATOM
      1 C          -6.0689  -15.8107   23.8916 C.ar    1  UNL1        0.2409
      2 N          -6.7984  -15.2403   25.0716 N.ar    1  UNL1       -0.1111
      3 N          -8.0477  -16.0446   25.2772 N.ar    1  UNL1       -0.1270
      4 C          -8.0904  -17.1120   24.2241 C.ar    1  UNL1        0.1744
      5 C          -9.0849  -18.1969   23.9344 C.ar    1  UNL1        0.0758
      6 C          -8.8563  -19.1372   22.7883 C.ar    1  UNL1        0.1390
      7 C          -7.6333  -18.9926   21.9320 C.ar    1  UNL1        0.0292
      8 C          -6.6389  -17.9077   22.2217 C.ar    1  UNL1        0.0828
      9 N          -6.8674  -16.9674   23.3678 N.ar    1  UNL1       -0.2599
     10 C          -7.4048  -19.9330   20.7858 C.3     1  UNL1        0.0268
     11 C          -7.8380  -20.5049   19.4686 C.3     1  UNL1        0.0048
     12 C          -6.5759  -20.9897   20.1180 C.3     1  UNL1        0.0048
     13 N          -4.7691  -15.3119   23.3333 N.pl3   1  UNL1       -0.1872
     14 H          -4.6448  -14.3510   23.1586 H       1  UNL1        0.1764
     15 C          -2.5482  -17.2423   22.7489 C.3     1  UNL1        0.1997
     16 S          -3.6586  -16.2771   23.0411 S.O2    1  UNL1        0.0580
     17 O          -3.1912  -15.3993   21.9182 O.2     1  UNL1       -0.1544
     18 O          -4.1261  -17.1548   24.1640 O.2     1  UNL1       -0.1544
     19 O          -9.8508  -20.2221   22.4985 O.3     1  UNL1       -0.4756
     20 C         -11.2026  -19.8735   21.9497 C.3     1  UNL1        0.2051
     21 C         -11.4198  -18.5517   21.2745 C.3     1  UNL1        0.0404
     22 C         -12.2203  -17.4830   21.9578 C.3     1  UNL1        0.0036
     23 C         -12.4375  -16.1613   21.2826 C.3     1  UNL1        0.0001
     24 C         -11.8541  -15.9084   19.9240 C.3     1  UNL1        0.0000
     25 C         -11.0536  -16.9771   19.2407 C.3     1  UNL1        0.0001
     26 C         -12.0047  -18.2070   22.1375 C.3     1  UNL1        0.0000
     27 C         -12.8037  -17.7360   23.3164 C.3     1  UNL1        0.0001
     28 C         -13.0208  -16.4143   22.6412 C.3     1  UNL1        0.0000
     29 C         -12.0031  -18.8047   22.6331 C.3     1  UNL1        0.0036
     30 C         -10.8364  -18.2987   19.9159 C.3     1  UNL1        0.0036
@<TRIPOS>BOND
     1    15    16    1
     2    16    17    2
     3    16    18    2
     4    16    13    1
     5    13     1    1
     6     1     2   ar
     7     2     3   ar
     8     3     4   ar
     9     4     5   ar
    10     5     6   ar
    11     6    19    1
    12    19    20    1
    13    20    21    1
    14    21    22    1
    15    22    23    1
    16    23    24    1
    17    24    25    1
    18    25    26    1
    19    26    27    1
    20    27    28    1
    21    27    29    1
    22    25    30    1
    23     6     7   ar
    24     7    10    1
    25    10    11    1
    26    11    12    1
    27     7     8   ar
    28     8     9   ar
    29     9     1   ar
    30     9     4   ar
    31    29    21    1
    32    12    10    1
    33    30    21    1
    34    28    23    1
    35    13    14    1
