@<TRIPOS>MOLECULE
*****
 31 35 0 0 0
SMALL
GASTEIGER

@<TRIPOS>ATOM
      1 O           2.3683    3.3252   21.7044 O.2     1  UNL1       -0.2729
      2 C           1.9241    2.0596   21.0329 C.2     1  UNL1        0.2474
      3 N           1.4336    0.9058   21.8564 N.am    1  UNL1       -0.2665
      4 H           1.1421    0.0752   21.4157 H       1  UNL1        0.1564
      5 C           1.3873    1.0177   23.3515 C.ar    1  UNL1        0.1560
      6 C           0.2183    1.6802   24.0182 C.ar    1  UNL1        0.0379
      7 C           0.1720    1.7920   25.5133 C.ar    1  UNL1        0.0239
      8 C           1.2947    1.2413   26.3418 C.ar    1  UNL1        0.1045
      9 N           2.4637    0.5787   25.6750 N.ar    1  UNL1       -0.1467
     10 N           2.5100    0.4669   24.1799 N.ar    1  UNL1       -0.1328
     11 C           1.2484    1.3531   27.8369 C.ar    1  UNL1        0.0386
     12 C           1.0552    2.6929   28.4831 C.ar    1  UNL1        0.0047
     13 C           1.0089    2.8047   29.9782 C.ar    1  UNL1        0.0207
     14 C           1.1558    1.5767   30.8271 C.ar    1  UNL1        0.0989
     15 N           1.3490    0.2370   30.1808 N.ar    1  UNL1       -0.2423
     16 C           1.3953    0.1252   28.6857 C.ar    1  UNL1        0.1004
     17 C           1.9704    1.9478   19.5378 C.3     1  UNL1        0.1775
     18 N           3.2808    1.7250   18.8425 N.pl3   1  UNL1       -0.2964
     19 C           4.0580    2.8943   18.3145 C.3     1  UNL1        0.0917
     20 C           5.3683    2.6715   17.6193 C.3     1  UNL1        0.0263
     21 C           5.9015    1.2795   17.4522 C.3     1  UNL1        0.0342
     22 C           5.1244    0.1102   17.9803 C.2     1  UNL1        0.0496
     23 C           3.8141    0.3330   18.6754 C.2     1  UNL1        0.1032
     24 C           3.2751   -1.0046   19.0885 C.2     1  UNL1        0.2682
     25 O           1.9854   -1.2496   19.8140 O.2     1  UNL1       -0.2681
     26 N           4.2524   -2.0540   18.6485 N.am    1  UNL1       -0.2238
     27 C           5.3954   -1.3650   17.9636 C.2     1  UNL1        0.2523
     28 O           6.5981   -2.0338   17.3669 O.2     1  UNL1       -0.2698
     29 C           4.1116   -3.5328   18.8569 C.3     1  UNL1        0.0831
     30 C           3.2743   -4.7167   19.2406 C.3     1  UNL1        0.0220
     31 C           4.7051   -4.9102   18.8342 C.3     1  UNL1        0.0220
@<TRIPOS>BOND
     1     1     2    2
     2     2    17    1
     3    17    18    1
     4    18    19    1
     5    19    20    1
     6    20    21    1
     7    21    22    1
     8    22    23    2
     9    23    24    1
    10    24    25    2
    11    24    26   am
    12    26    29    1
    13    29    30    1
    14    30    31    1
    15    26    27   am
    16    27    28    2
    17     2     3   am
    18     3     5    1
    19     5     6   ar
    20     6     7   ar
    21     7     8   ar
    22     8    11    1
    23    11    12   ar
    24    12    13   ar
    25    13    14   ar
    26    14    15   ar
    27    15    16   ar
    28     8     9   ar
    29     9    10   ar
    30    23    18    1
    31    31    29    1
    32    10     5   ar
    33    27    22    1
    34    16    11   ar
    35     3     4    1
@<TRIPOS>MOLECULE
*****
 31 35 0 0 0
SMALL
GASTEIGER

@<TRIPOS>ATOM
      1 O          -0.1728    2.8467   17.8061 O.2     1  UNL1       -0.2729
      2 C          -0.6152    3.3768   19.1378 C.2     1  UNL1        0.2474
      3 N          -0.0847    2.7673   20.4015 N.am    1  UNL1       -0.2665
      4 H          -0.3751    3.1152   21.2755 H       1  UNL1        0.1564
      5 C           0.8883    1.6277   20.3336 C.ar    1  UNL1        0.1560
      6 C           0.3862    0.2157   20.2682 C.ar    1  UNL1        0.0379
      7 C           1.3592   -0.9239   20.2004 C.ar    1  UNL1        0.0239
      8 C           2.8343   -0.6515   20.1979 C.ar    1  UNL1        0.1045
      9 N           3.3364    0.7605   20.2633 N.ar    1  UNL1       -0.1467
     10 N           2.3634    1.9001   20.3312 N.ar    1  UNL1       -0.1328
     11 C           3.8073   -1.7910   20.1300 C.ar    1  UNL1        0.0386
     12 C           3.4275   -3.0607   19.4273 C.ar    1  UNL1        0.0047
     13 C           4.4005   -4.2003   19.3595 C.ar    1  UNL1        0.0207
     14 C           5.7534   -4.0702   19.9943 C.ar    1  UNL1        0.0989
     15 N           6.1331   -2.8006   20.6969 N.ar    1  UNL1       -0.2423
     16 C           5.1601   -1.6610   20.7648 C.ar    1  UNL1        0.1004
     17 C          -1.5882    4.5164   19.2057 C.3     1  UNL1        0.1775
     18 N          -3.0574    4.2416   19.3328 N.pl3   1  UNL1       -0.2964
     19 C          -3.8931    4.0462   18.1027 C.3     1  UNL1        0.0917
     20 C          -5.3622    3.7715   18.2299 C.3     1  UNL1        0.0263
     21 C          -5.9956    3.6920   19.5873 C.3     1  UNL1        0.0342
     22 C          -5.1599    3.8874   20.8174 C.2     1  UNL1        0.0496
     23 C          -3.6908    4.1622   20.6902 C.2     1  UNL1        0.1032
     24 C          -3.1256    4.3108   22.0718 C.2     1  UNL1        0.2682
     25 O          -1.6923    4.5928   22.4124 O.2     1  UNL1       -0.2681
     26 N          -4.2455    4.1278   23.0528 N.am    1  UNL1       -0.2238
     27 C          -5.5027    3.8662   22.2776 C.2     1  UNL1        0.2523
     28 O          -6.8638    3.6255   22.8602 O.2     1  UNL1       -0.2698
     29 C          -4.1287    4.1947   24.5468 C.3     1  UNL1        0.0831
     30 C          -3.2811    4.2932   25.7804 C.3     1  UNL1        0.0220
     31 C          -4.7740    4.2122   25.9008 C.3     1  UNL1        0.0220
@<TRIPOS>BOND
     1     1     2    2
     2     2    17    1
     3    17    18    1
     4    18    19    1
     5    19    20    1
     6    20    21    1
     7    21    22    1
     8    22    23    2
     9    23    24    1
    10    24    25    2
    11    24    26   am
    12    26    29    1
    13    29    30    1
    14    30    31    1
    15    26    27   am
    16    27    28    2
    17     2     3   am
    18     3     5    1
    19     5     6   ar
    20     6     7   ar
    21     7     8   ar
    22     8    11    1
    23    11    12   ar
    24    12    13   ar
    25    13    14   ar
    26    14    15   ar
    27    15    16   ar
    28     8     9   ar
    29     9    10   ar
    30    23    18    1
    31    31    29    1
    32    10     5   ar
    33    27    22    1
    34    16    11   ar
    35     3     4    1
@<TRIPOS>MOLECULE
*****
 31 35 0 0 0
SMALL
GASTEIGER

@<TRIPOS>ATOM
      1 O           0.1283    2.0411   23.2034 O.2     1  UNL1       -0.2729
      2 C          -0.3621    2.9731   22.1352 C.2     1  UNL1        0.2474
      3 N           0.0491    2.7612   20.7083 N.am    1  UNL1       -0.2665
      4 H          -0.2728    3.3729   20.0073 H       1  UNL1        0.1564
      5 C           0.9507    1.6174   20.3496 C.ar    1  UNL1        0.1560
      6 C           0.4256    0.2125   20.3732 C.ar    1  UNL1        0.0379
      7 C           1.3272   -0.9314   20.0145 C.ar    1  UNL1        0.0239
      8 C           2.7540   -0.6703   19.6321 C.ar    1  UNL1        0.1045
      9 N           3.2791    0.7346   19.6085 N.ar    1  UNL1       -0.1467
     10 N           2.3775    1.8784   19.9673 N.ar    1  UNL1       -0.1328
     11 C           3.6556   -1.8141   19.2734 C.ar    1  UNL1        0.0386
     12 C           3.4770   -3.1469   19.9381 C.ar    1  UNL1        0.0047
     13 C           4.3786   -4.2908   19.5793 C.ar    1  UNL1        0.0207
     14 C           5.4589   -4.1018   18.5559 C.ar    1  UNL1        0.0989
     15 N           5.6375   -2.7690   17.8913 N.ar    1  UNL1       -0.2423
     16 C           4.7359   -1.6252   18.2500 C.ar    1  UNL1        0.1004
     17 C          -1.2637    4.1170   22.4939 C.3     1  UNL1        0.1775
     18 N          -2.7508    3.9214   22.5158 N.pl3   1  UNL1       -0.2964
     19 C          -3.4584    3.6942   23.8187 C.3     1  UNL1        0.0917
     20 C          -4.9454    3.4987   23.8405 C.3     1  UNL1        0.0263
     21 C          -5.7249    3.5304   22.5593 C.3     1  UNL1        0.0342
     22 C          -5.0173    3.7576   21.2564 C.2     1  UNL1        0.0496
     23 C          -3.5303    3.9531   21.2346 C.2     1  UNL1        0.1032
     24 C          -3.1102    4.1557   19.8089 C.2     1  UNL1        0.2682
     25 O          -1.7088    4.3878   19.3271 O.2     1  UNL1       -0.2681
     26 N          -4.3377    4.0854   18.9496 N.am    1  UNL1       -0.2238
     27 C          -5.5163    3.8393   19.8442 C.2     1  UNL1        0.2523
     28 O          -6.9434    3.6996   19.4039 O.2     1  UNL1       -0.2698
     29 C          -4.3792    4.2348   17.4576 C.3     1  UNL1        0.0831
     30 C          -4.9107    4.9229   16.2353 C.3     1  UNL1        0.0220
     31 C          -3.9197    3.8056   16.0957 C.3     1  UNL1        0.0220
@<TRIPOS>BOND
     1     1     2    2
     2     2    17    1
     3    17    18    1
     4    18    19    1
     5    19    20    1
     6    20    21    1
     7    21    22    1
     8    22    23    2
     9    23    24    1
    10    24    25    2
    11    24    26   am
    12    26    29    1
    13    29    30    1
    14    30    31    1
    15    26    27   am
    16    27    28    2
    17     2     3   am
    18     3     5    1
    19     5     6   ar
    20     6     7   ar
    21     7     8   ar
    22     8    11    1
    23    11    12   ar
    24    12    13   ar
    25    13    14   ar
    26    14    15   ar
    27    15    16   ar
    28     8     9   ar
    29     9    10   ar
    30    23    18    1
    31    31    29    1
    32    10     5   ar
    33    27    22    1
    34    16    11   ar
    35     3     4    1
@<TRIPOS>MOLECULE
*****
 31 35 0 0 0
SMALL
GASTEIGER

@<TRIPOS>ATOM
      1 O           4.9650    0.1609   27.1083 O.2     1  UNL1       -0.2729
      2 C           3.8586   -0.7765   26.7244 C.2     1  UNL1        0.2474
      3 N           2.8118   -1.1531   27.7305 N.am    1  UNL1       -0.2665
      4 H           2.0857   -1.7684   27.4786 H       1  UNL1        0.1564
      5 C           2.8712   -0.5924   29.1205 C.ar    1  UNL1        0.1560
      6 C           4.0818   -0.8298   29.9739 C.ar    1  UNL1        0.0379
      7 C           4.1413   -0.2690   31.3638 C.ar    1  UNL1        0.0239
      8 C           2.9902    0.5292   31.9004 C.ar    1  UNL1        0.1045
      9 N           1.7797    0.7666   31.0470 N.ar    1  UNL1       -0.1467
     10 N           1.7202    0.2058   29.6571 N.ar    1  UNL1       -0.1328
     11 C           3.0496    1.0900   33.2904 C.ar    1  UNL1        0.0386
     12 C           4.0926    0.6022   34.2519 C.ar    1  UNL1        0.0047
     13 C           4.1520    1.1630   35.6419 C.ar    1  UNL1        0.0207
     14 C           3.1686    2.2115   36.0703 C.ar    1  UNL1        0.0989
     15 N           2.1258    2.6992   35.1088 N.ar    1  UNL1       -0.2423
     16 C           2.0663    2.1385   33.7188 C.ar    1  UNL1        0.1004
     17 C           3.7991   -1.3373   25.3345 C.3     1  UNL1        0.1775
     18 N           3.1097   -0.5703   24.2451 N.pl3   1  UNL1       -0.2964
     19 C           2.3321    0.6687   24.5769 C.3     1  UNL1        0.0917
     20 C           1.6428    1.4356   23.4876 C.3     1  UNL1        0.0263
     21 C           1.7310    0.9635   22.0666 C.3     1  UNL1        0.0342
     22 C           2.5086   -0.2756   21.7348 C.2     1  UNL1        0.0496
     23 C           3.1980   -1.0425   22.8241 C.2     1  UNL1        0.1032
     24 C           3.8865   -2.2191   22.1983 C.2     1  UNL1        0.2682
     25 O           4.6966   -3.2538   22.9216 O.2     1  UNL1       -0.2681
     26 N           3.6226   -2.1794   20.7223 N.am    1  UNL1       -0.2238
     27 C           2.7710   -0.9782   20.4358 C.2     1  UNL1        0.2523
     28 O           2.2699   -0.5541   19.0871 O.2     1  UNL1       -0.2698
     29 C           4.1225   -3.1673   19.7103 C.3     1  UNL1        0.0831
     30 C           4.0506   -4.5234   19.0731 C.3     1  UNL1        0.0220
     31 C           5.0602   -3.5225   18.5947 C.3     1  UNL1        0.0220
@<TRIPOS>BOND
     1     1     2    2
     2     2    17    1
     3    17    18    1
     4    18    19    1
     5    19    20    1
     6    20    21    1
     7    21    22    1
     8    22    23    2
     9    23    24    1
    10    24    25    2
    11    24    26   am
    12    26    29    1
    13    29    30    1
    14    30    31    1
    15    26    27   am
    16    27    28    2
    17     2     3   am
    18     3     5    1
    19     5     6   ar
    20     6     7   ar
    21     7     8   ar
    22     8    11    1
    23    11    12   ar
    24    12    13   ar
    25    13    14   ar
    26    14    15   ar
    27    15    16   ar
    28     8     9   ar
    29     9    10   ar
    30    23    18    1
    31    31    29    1
    32    10     5   ar
    33    27    22    1
    34    16    11   ar
    35     3     4    1
@<TRIPOS>MOLECULE
*****
 31 35 0 0 0
SMALL
GASTEIGER

@<TRIPOS>ATOM
      1 O           4.5150   -4.6837   20.1590 O.2     1  UNL1       -0.2729
      2 C           5.4451   -3.6146   19.6667 C.2     1  UNL1        0.2474
      3 N           6.6811   -3.2782   20.4471 N.am    1  UNL1       -0.2665
      4 H           7.2915   -2.5766   20.1240 H       1  UNL1        0.1564
      5 C           6.9871   -4.0107   21.7198 C.ar    1  UNL1        0.1560
      6 C           6.4054   -3.5342   23.0178 C.ar    1  UNL1        0.0379
      7 C           6.7114   -4.2667   24.2906 C.ar    1  UNL1        0.0239
      8 C           7.5990   -5.4757   24.2653 C.ar    1  UNL1        0.1045
      9 N           8.1806   -5.9521   22.9673 N.ar    1  UNL1       -0.1467
     10 N           7.8747   -5.2196   21.6946 N.ar    1  UNL1       -0.1328
     11 C           7.9050   -6.2082   25.5380 C.ar    1  UNL1        0.0386
     12 C           7.8123   -7.7047   25.5829 C.ar    1  UNL1        0.0047
     13 C           8.1183   -8.4372   26.8557 C.ar    1  UNL1        0.0207
     14 C           8.5170   -7.6732   28.0835 C.ar    1  UNL1        0.0989
     15 N           8.6096   -6.1767   28.0385 N.ar    1  UNL1       -0.2423
     16 C           8.3036   -5.4442   26.7658 C.ar    1  UNL1        0.1004
     17 C           5.1391   -2.8822   18.3940 C.3     1  UNL1        0.1775
     18 N           5.4332   -1.4154   18.2835 N.pl3   1  UNL1       -0.2964
     19 C           6.6919   -0.9512   17.6128 C.3     1  UNL1        0.0917
     20 C           6.9859    0.5155   17.5024 C.3     1  UNL1        0.0263
     21 C           6.0211    1.5181   18.0627 C.3     1  UNL1        0.0342
     22 C           4.7624    1.0539   18.7335 C.2     1  UNL1        0.0496
     23 C           4.4684   -0.4128   18.8439 C.2     1  UNL1        0.1032
     24 C           3.1565   -0.5705   19.5541 C.2     1  UNL1        0.2682
     25 O           2.4802   -1.8694   19.8787 O.2     1  UNL1       -0.2681
     26 N           2.6398    0.7989   19.8825 N.am    1  UNL1       -0.2238
     27 C           3.6322    1.8028   19.3754 C.2     1  UNL1        0.2523
     28 O           3.5152    3.2938   19.4900 O.2     1  UNL1       -0.2698
     29 C           1.3559    1.1097   20.5934 C.3     1  UNL1        0.0831
     30 C          -0.0298    1.6836   20.5808 C.3     1  UNL1        0.0220
     31 C           0.5182    1.0743   21.8371 C.3     1  UNL1        0.0220
@<TRIPOS>BOND
     1     1     2    2
     2     2    17    1
     3    17    18    1
     4    18    19    1
     5    19    20    1
     6    20    21    1
     7    21    22    1
     8    22    23    2
     9    23    24    1
    10    24    25    2
    11    24    26   am
    12    26    29    1
    13    29    30    1
    14    30    31    1
    15    26    27   am
    16    27    28    2
    17     2     3   am
    18     3     5    1
    19     5     6   ar
    20     6     7   ar
    21     7     8   ar
    22     8    11    1
    23    11    12   ar
    24    12    13   ar
    25    13    14   ar
    26    14    15   ar
    27    15    16   ar
    28     8     9   ar
    29     9    10   ar
    30    23    18    1
    31    31    29    1
    32    10     5   ar
    33    27    22    1
    34    16    11   ar
    35     3     4    1
@<TRIPOS>MOLECULE
*****
 31 35 0 0 0
SMALL
GASTEIGER

@<TRIPOS>ATOM
      1 O           0.6181    2.0772   24.2596 O.2     1  UNL1       -0.2729
      2 C           0.1212    3.1548   23.3419 C.2     1  UNL1        0.2474
      3 N           0.4028    3.0759   21.8708 N.am    1  UNL1       -0.2665
      4 H           0.0767    3.7831   21.2685 H       1  UNL1        0.1564
      5 C           1.1813    1.9194   21.3171 C.ar    1  UNL1        0.1560
      6 C           0.4616    0.7626   20.6896 C.ar    1  UNL1        0.0379
      7 C           1.2401   -0.3939   20.1360 C.ar    1  UNL1        0.0239
      8 C           2.7383   -0.3935   20.2099 C.ar    1  UNL1        0.1045
      9 N           3.4580    0.7634   20.8373 N.ar    1  UNL1       -0.1467
     10 N           2.6794    1.9198   21.3910 N.ar    1  UNL1       -0.1328
     11 C           3.5168   -1.5499   19.6562 C.ar    1  UNL1        0.0386
     12 C           3.5891   -2.8394   20.4193 C.ar    1  UNL1        0.0047
     13 C           4.3676   -3.9958   19.8657 C.ar    1  UNL1        0.0207
     14 C           5.0739   -3.8629   18.5490 C.ar    1  UNL1        0.0989
     15 N           5.0016   -2.5735   17.7860 N.ar    1  UNL1       -0.2423
     16 C           4.2230   -1.4170   18.3396 C.ar    1  UNL1        0.1004
     17 C          -0.6574    4.3113   23.8956 C.3     1  UNL1        0.1775
     18 N          -2.0676    4.1098   24.3654 N.pl3   1  UNL1       -0.2964
     19 C          -2.3518    3.9214   25.8261 C.3     1  UNL1        0.0917
     20 C          -3.7620    3.7199   26.2959 C.3     1  UNL1        0.0263
     21 C          -4.8880    3.7068   25.3050 C.3     1  UNL1        0.0342
     22 C          -4.6038    3.8952   23.8443 C.2     1  UNL1        0.0496
     23 C          -3.1936    4.0967   23.3745 C.2     1  UNL1        0.1032
     24 C          -3.2200    4.2552   21.8830 C.2     1  UNL1        0.2682
     25 O          -2.0290    4.4781   20.9989 O.2     1  UNL1       -0.2681
     26 N          -4.6465    4.1516   21.4311 N.am    1  UNL1       -0.2238
     27 C          -5.5018    3.9291   22.6432 C.2     1  UNL1        0.2523
     28 O          -6.9931    3.7688   22.6526 O.2     1  UNL1       -0.2698
     29 C          -5.1326    4.2528   20.0156 C.3     1  UNL1        0.0831
     30 C          -5.3702    3.6222   18.6755 C.3     1  UNL1        0.0220
     31 C          -5.7369    5.0586   18.9041 C.3     1  UNL1        0.0220
@<TRIPOS>BOND
     1     1     2    2
     2     2    17    1
     3    17    18    1
     4    18    19    1
     5    19    20    1
     6    20    21    1
     7    21    22    1
     8    22    23    2
     9    23    24    1
    10    24    25    2
    11    24    26   am
    12    26    29    1
    13    29    30    1
    14    30    31    1
    15    26    27   am
    16    27    28    2
    17     2     3   am
    18     3     5    1
    19     5     6   ar
    20     6     7   ar
    21     7     8   ar
    22     8    11    1
    23    11    12   ar
    24    12    13   ar
    25    13    14   ar
    26    14    15   ar
    27    15    16   ar
    28     8     9   ar
    29     9    10   ar
    30    23    18    1
    31    31    29    1
    32    10     5   ar
    33    27    22    1
    34    16    11   ar
    35     3     4    1
@<TRIPOS>MOLECULE
*****
 31 35 0 0 0
SMALL
GASTEIGER

@<TRIPOS>ATOM
      1 O          -9.8960    4.7092   24.3119 O.2     1  UNL1       -0.2729
      2 C          -9.7390    6.1866   24.5190 C.2     1  UNL1        0.2474
      3 N         -10.9520    7.0552   24.6742 N.am    1  UNL1       -0.2665
      4 H         -10.8490    8.0248   24.8101 H       1  UNL1        0.1564
      5 C         -12.3220    6.4465   24.6223 C.ar    1  UNL1        0.1560
      6 C         -13.1634    6.5971   23.3897 C.ar    1  UNL1        0.0379
      7 C         -14.5334    5.9885   23.3378 C.ar    1  UNL1        0.0239
      8 C         -15.0619    5.2291   24.5186 C.ar    1  UNL1        0.1045
      9 N         -14.2205    5.0785   25.7511 N.ar    1  UNL1       -0.1467
     10 N         -12.8505    5.6872   25.8030 N.ar    1  UNL1       -0.1328
     11 C         -16.4319    4.6204   24.4667 C.ar    1  UNL1        0.0386
     12 C         -16.6660    3.3663   23.6777 C.ar    1  UNL1        0.0047
     13 C         -18.0359    2.7576   23.6259 C.ar    1  UNL1        0.0207
     14 C         -19.1718    3.4030   24.3630 C.ar    1  UNL1        0.0989
     15 N         -18.9377    4.6571   25.1519 N.ar    1  UNL1       -0.2423
     16 C         -17.5677    5.2658   25.2038 C.ar    1  UNL1        0.1004
     17 C          -8.3691    6.7953   24.5708 C.3     1  UNL1        0.1775
     18 N          -7.1649    5.9184   24.7474 N.pl3   1  UNL1       -0.2964
     19 C          -6.5457    5.7588   26.1042 C.3     1  UNL1        0.0917
     20 C          -5.3417    4.8819   26.2807 C.3     1  UNL1        0.0263
     21 C          -4.7568    4.1646   25.1003 C.3     1  UNL1        0.0342
     22 C          -5.3760    4.3241   23.7434 C.2     1  UNL1        0.0496
     23 C          -6.5800    5.2010   23.5670 C.2     1  UNL1        0.1032
     24 C          -6.9710    5.1658   22.1192 C.2     1  UNL1        0.2682
     25 O          -8.1223    5.9003   21.4987 O.2     1  UNL1       -0.2681
     26 N          -6.0085    4.2670   21.4010 N.am    1  UNL1       -0.2238
     27 C          -5.0227    3.7469   22.4048 C.2     1  UNL1        0.2523
     28 O          -3.8837    2.8134   22.1200 O.2     1  UNL1       -0.2698
     29 C          -6.0283    3.9450   19.9360 C.3     1  UNL1        0.0831
     30 C          -6.7346    3.3791   18.7398 C.3     1  UNL1        0.0220
     31 C          -5.3564    3.9531   18.5950 C.3     1  UNL1        0.0220
@<TRIPOS>BOND
     1     1     2    2
     2     2    17    1
     3    17    18    1
     4    18    19    1
     5    19    20    1
     6    20    21    1
     7    21    22    1
     8    22    23    2
     9    23    24    1
    10    24    25    2
    11    24    26   am
    12    26    29    1
    13    29    30    1
    14    30    31    1
    15    26    27   am
    16    27    28    2
    17     2     3   am
    18     3     5    1
    19     5     6   ar
    20     6     7   ar
    21     7     8   ar
    22     8    11    1
    23    11    12   ar
    24    12    13   ar
    25    13    14   ar
    26    14    15   ar
    27    15    16   ar
    28     8     9   ar
    29     9    10   ar
    30    23    18    1
    31    31    29    1
    32    10     5   ar
    33    27    22    1
    34    16    11   ar
    35     3     4    1
@<TRIPOS>MOLECULE
*****
 31 35 0 0 0
SMALL
GASTEIGER

@<TRIPOS>ATOM
      1 O           7.5994   -5.2736   22.6816 O.2     1  UNL1       -0.2729
      2 C           8.1286   -4.4469   23.8159 C.2     1  UNL1        0.2474
      3 N           7.6047   -3.0595   24.0409 N.am    1  UNL1       -0.2665
      4 H           7.9520   -2.5169   24.7854 H       1  UNL1        0.1564
      5 C           6.5516   -2.4988   23.1318 C.ar    1  UNL1        0.1560
      6 C           5.1007   -2.6523   23.4803 C.ar    1  UNL1        0.0379
      7 C           4.0476   -2.0916   22.5712 C.ar    1  UNL1        0.0239
      8 C           4.4453   -1.3775   21.3134 C.ar    1  UNL1        0.1045
      9 N           5.8962   -1.2241   20.9649 N.ar    1  UNL1       -0.1467
     10 N           6.9493   -1.7847   21.8741 N.ar    1  UNL1       -0.1328
     11 C           3.3922   -0.8168   20.4043 C.ar    1  UNL1        0.0386
     12 C           1.9699   -0.7239   20.8717 C.ar    1  UNL1        0.0047
     13 C           0.9168   -0.1632   19.9625 C.ar    1  UNL1        0.0207
     14 C           1.2860    0.3045   18.5859 C.ar    1  UNL1        0.0989
     15 N           2.7083    0.2116   18.1185 N.ar    1  UNL1       -0.2423
     16 C           3.7614   -0.3491   19.0277 C.ar    1  UNL1        0.1004
     17 C           9.1817   -5.0076   24.7251 C.3     1  UNL1        0.1775
     18 N           8.7998   -5.9665   25.8135 N.pl3   1  UNL1       -0.2964
     19 C           8.9484   -7.4434   25.5981 C.3     1  UNL1        0.0917
     20 C           8.5664   -8.4023   26.6865 C.3     1  UNL1        0.0263
     21 C           8.0359   -7.8842   27.9903 C.3     1  UNL1        0.0342
     22 C           7.8873   -6.4072   28.2058 C.2     1  UNL1        0.0496
     23 C           8.2692   -5.4484   27.1174 C.2     1  UNL1        0.1032
     24 C           8.0143   -4.0565   27.6153 C.2     1  UNL1        0.2682
     25 O           8.2564   -2.7886   26.8511 O.2     1  UNL1       -0.2681
     26 N           7.4749   -4.1552   29.0114 N.am    1  UNL1       -0.2238
     27 C           7.3963   -5.6080   29.3764 C.2     1  UNL1        0.2523
     28 O           6.9119   -6.1640   30.6826 O.2     1  UNL1       -0.2698
     29 C           7.0827   -3.0033   29.8886 C.3     1  UNL1        0.0831
     30 C           6.1142   -2.3662   30.8405 C.3     1  UNL1        0.0220
     31 C           7.3721   -1.6452   30.4561 C.3     1  UNL1        0.0220
@<TRIPOS>BOND
     1     1     2    2
     2     2    17    1
     3    17    18    1
     4    18    19    1
     5    19    20    1
     6    20    21    1
     7    21    22    1
     8    22    23    2
     9    23    24    1
    10    24    25    2
    11    24    26   am
    12    26    29    1
    13    29    30    1
    14    30    31    1
    15    26    27   am
    16    27    28    2
    17     2     3   am
    18     3     5    1
    19     5     6   ar
    20     6     7   ar
    21     7     8   ar
    22     8    11    1
    23    11    12   ar
    24    12    13   ar
    25    13    14   ar
    26    14    15   ar
    27    15    16   ar
    28     8     9   ar
    29     9    10   ar
    30    23    18    1
    31    31    29    1
    32    10     5   ar
    33    27    22    1
    34    16    11   ar
    35     3     4    1
@<TRIPOS>MOLECULE
*****
 31 35 0 0 0
SMALL
GASTEIGER

@<TRIPOS>ATOM
      1 O           3.9345   -2.7381   33.1689 O.2     1  UNL1       -0.2729
      2 C           4.8920   -1.5948   33.3314 C.2     1  UNL1        0.2474
      3 N           6.1484   -1.5468   32.5135 N.am    1  UNL1       -0.2665
      4 H           6.7768   -0.7964   32.6201 H       1  UNL1        0.1564
      5 C           6.4474   -2.6419   31.5330 C.ar    1  UNL1        0.1560
      6 C           6.9221   -3.9780   32.0227 C.ar    1  UNL1        0.0379
      7 C           7.2211   -5.0731   31.0423 C.ar    1  UNL1        0.0239
      8 C           7.0455   -4.8321   29.5721 C.ar    1  UNL1        0.1045
      9 N           6.5709   -3.4961   29.0825 N.ar    1  UNL1       -0.1467
     10 N           6.2719   -2.4010   30.0630 N.ar    1  UNL1       -0.1328
     11 C           7.3445   -5.9273   28.5917 C.ar    1  UNL1        0.0386
     12 C           6.6788   -5.9328   27.2475 C.ar    1  UNL1        0.0047
     13 C           6.9779   -7.0280   26.2670 C.ar    1  UNL1        0.0207
     14 C           7.9426   -8.1175   26.6308 C.ar    1  UNL1        0.0989
     15 N           8.6083   -8.1119   27.9750 N.ar    1  UNL1       -0.2423
     16 C           8.3092   -7.0167   28.9554 C.ar    1  UNL1        0.1004
     17 C           4.5929   -0.4997   34.3119 C.3     1  UNL1        0.1775
     18 N           3.6301    0.5912   33.9471 N.pl3   1  UNL1       -0.2964
     19 C           2.9459    0.5724   32.6124 C.3     1  UNL1        0.0917
     20 C           1.9832    1.6633   32.2477 C.3     1  UNL1        0.0263
     21 C           1.7046    2.7730   33.2177 C.3     1  UNL1        0.0342
     22 C           2.3888    2.7918   34.5524 C.2     1  UNL1        0.0496
     23 C           3.3515    1.7009   34.9171 C.2     1  UNL1        0.1032
     24 C           3.8718    1.9835   36.2954 C.2     1  UNL1        0.2682
     25 O           4.8599    1.1473   37.0534 O.2     1  UNL1       -0.2681
     26 N           3.2306    3.2490   36.7825 N.am    1  UNL1       -0.2238
     27 C           2.3140    3.7485   35.7053 C.2     1  UNL1        0.2523
     28 O           1.4708    4.9874   35.7696 O.2     1  UNL1       -0.2698
     29 C           3.4648    3.9006   38.1132 C.3     1  UNL1        0.0831
     30 C           3.3005    3.9053   39.6041 C.3     1  UNL1        0.0220
     31 C           4.0347    5.0244   38.9270 C.3     1  UNL1        0.0220
@<TRIPOS>BOND
     1     1     2    2
     2     2    17    1
     3    17    18    1
     4    18    19    1
     5    19    20    1
     6    20    21    1
     7    21    22    1
     8    22    23    2
     9    23    24    1
    10    24    25    2
    11    24    26   am
    12    26    29    1
    13    29    30    1
    14    30    31    1
    15    26    27   am
    16    27    28    2
    17     2     3   am
    18     3     5    1
    19     5     6   ar
    20     6     7   ar
    21     7     8   ar
    22     8    11    1
    23    11    12   ar
    24    12    13   ar
    25    13    14   ar
    26    14    15   ar
    27    15    16   ar
    28     8     9   ar
    29     9    10   ar
    30    23    18    1
    31    31    29    1
    32    10     5   ar
    33    27    22    1
    34    16    11   ar
    35     3     4    1
