@<TRIPOS>MOLECULE
*****
 22 25 0 0 0
SMALL
GASTEIGER

@<TRIPOS>ATOM
      1 C          -8.5085  -18.2705   22.2306 C.ar    1  UNL1        0.0032
      2 C          -7.5202  -17.4202   22.9722 C.ar    1  UNL1        0.0312
      3 C          -6.0495  -17.6724   22.8184 C.ar    1  UNL1        0.1558
      4 F          -5.0611  -16.8220   23.5600 F       1  UNL1       -0.2026
      5 C          -5.5673  -18.7750   21.9229 C.ar    1  UNL1        0.0896
      6 C          -6.5557  -19.6253   21.1813 C.ar    1  UNL1       -0.0034
      7 C          -8.0263  -19.3731   21.3352 C.ar    1  UNL1       -0.0026
      8 C          -6.0735  -20.7278   20.2859 C.3     1  UNL1        0.0359
      9 C          -4.6028  -20.9801   20.1321 C.3     1  UNL1        0.0709
     10 C          -3.6144  -20.1297   20.8737 C.ar    1  UNL1        0.1472
     11 N          -2.1152  -20.1420   20.9197 N.ar    1  UNL1       -0.1333
     12 N          -1.6709  -19.0471   21.8436 N.ar    1  UNL1       -0.1333
     13 C          -2.8955  -18.3580   22.3685 C.ar    1  UNL1        0.1473
     14 C          -2.9153  -17.2027   23.3250 C.3     1  UNL1        0.0742
     15 N          -4.0967  -19.0272   21.7691 N.ar    1  UNL1       -0.2788
     16 C         -10.0512  -19.6638   24.3937 C.3     1  UNL1        0.0311
     17 C         -10.7505  -18.7148   23.4659 C.ar    1  UNL1       -0.0188
     18 C         -12.2212  -18.4626   23.6198 C.ar    1  UNL1        0.0164
     19 C         -12.9204  -17.5137   22.6921 C.ar    1  UNL1        0.0986
     20 N         -12.1490  -16.8171   21.6106 N.ar    1  UNL1       -0.2423
     21 C         -10.6784  -17.0694   21.4567 C.ar    1  UNL1        0.0985
     22 C          -9.9792  -18.0183   22.3845 C.ar    1  UNL1        0.0153
@<TRIPOS>BOND
     1    16    17    1
     2    17    18   ar
     3    18    19   ar
     4    19    20   ar
     5    20    21   ar
     6    21    22   ar
     7    22     1    1
     8     1     2   ar
     9     2     3   ar
    10     3     4    1
    11     3     5   ar
    12     5     6   ar
    13     6     7   ar
    14     6     8    1
    15     8     9    1
    16     9    10    1
    17    10    11   ar
    18    11    12   ar
    19    12    13   ar
    20    13    14    1
    21    13    15   ar
    22    22    17   ar
    23     7     1   ar
    24    15    10   ar
    25    15     5    1
@<TRIPOS>MOLECULE
*****
 22 25 0 0 0
SMALL
GASTEIGER

@<TRIPOS>ATOM
      1 C          -8.5012  -18.1280   22.2613 C.ar    1  UNL1        0.0032
      2 C          -8.0907  -19.1928   21.2879 C.ar    1  UNL1        0.0312
      3 C          -6.6374  -19.5036   21.0850 C.ar    1  UNL1        0.1558
      4 F          -6.2268  -20.5684   20.1115 F       1  UNL1       -0.2026
      5 C          -5.5945  -18.7496   21.8557 C.ar    1  UNL1        0.0896
      6 C          -6.0050  -17.6848   22.8292 C.ar    1  UNL1       -0.0034
      7 C          -7.4584  -17.3740   23.0320 C.ar    1  UNL1       -0.0026
      8 C          -4.9622  -16.9308   23.5998 C.3     1  UNL1        0.0359
      9 C          -3.5087  -17.2416   23.3970 C.3     1  UNL1        0.0709
     10 C          -3.0983  -18.3064   22.4235 C.ar    1  UNL1        0.1472
     11 N          -1.7525  -18.8286   22.0158 N.ar    1  UNL1       -0.1333
     12 N          -1.9637  -19.9055   20.9931 N.ar    1  UNL1       -0.1333
     13 C          -3.4399  -20.0487   20.7688 C.ar    1  UNL1        0.1473
     14 C          -4.0992  -21.0112   19.8260 C.3     1  UNL1        0.0742
     15 N          -4.1411  -19.0604   21.6528 N.ar    1  UNL1       -0.2788
     16 C         -10.0995  -19.6756   24.2740 C.3     1  UNL1        0.0311
     17 C         -10.7537  -18.5910   23.4704 C.ar    1  UNL1       -0.0188
     18 C         -12.2072  -18.2802   23.6732 C.ar    1  UNL1        0.0164
     19 C         -12.8614  -17.1957   22.8696 C.ar    1  UNL1        0.0986
     20 N         -12.0622  -16.4219   21.8633 N.ar    1  UNL1       -0.2423
     21 C         -10.6088  -16.7327   21.6606 C.ar    1  UNL1        0.0985
     22 C          -9.9546  -17.8172   22.4641 C.ar    1  UNL1        0.0153
@<TRIPOS>BOND
     1    16    17    1
     2    17    18   ar
     3    18    19   ar
     4    19    20   ar
     5    20    21   ar
     6    21    22   ar
     7    22     1    1
     8     1     2   ar
     9     2     3   ar
    10     3     4    1
    11     3     5   ar
    12     5     6   ar
    13     6     7   ar
    14     6     8    1
    15     8     9    1
    16     9    10    1
    17    10    11   ar
    18    11    12   ar
    19    12    13   ar
    20    13    14    1
    21    13    15   ar
    22    22    17   ar
    23     7     1   ar
    24    15    10   ar
    25    15     5    1
@<TRIPOS>MOLECULE
*****
 22 25 0 0 0
SMALL
GASTEIGER

@<TRIPOS>ATOM
      1 C          -6.0644  -18.7107   21.5770 C.ar    1  UNL1        0.0032
      2 C          -6.5889  -17.8212   22.6650 C.ar    1  UNL1        0.0312
      3 C          -8.0501  -17.4869   22.7212 C.ar    1  UNL1        0.1558
      4 F          -8.5747  -16.5974   23.8092 F       1  UNL1       -0.2026
      5 C          -8.9868  -18.0422   21.6896 C.ar    1  UNL1        0.0896
      6 C          -8.4622  -18.9317   20.6016 C.ar    1  UNL1       -0.0034
      7 C          -7.0010  -19.2659   20.5454 C.ar    1  UNL1       -0.0026
      8 C          -9.3988  -19.4870   19.5700 C.3     1  UNL1        0.0359
      9 C         -10.8601  -19.1528   19.6263 C.3     1  UNL1        0.0709
     10 C         -11.3846  -18.2633   20.7142 C.ar    1  UNL1        0.1472
     11 N         -12.7645  -17.7630   21.0237 N.ar    1  UNL1       -0.1333
     12 N         -12.6805  -16.8985   22.2466 N.ar    1  UNL1       -0.1333
     13 C         -11.2489  -16.8645   22.6929 C.ar    1  UNL1        0.1473
     14 C         -10.7124  -16.1180   23.8783 C.3     1  UNL1        0.0742
     15 N         -10.4480  -17.7080   21.7459 N.ar    1  UNL1       -0.2788
     16 C          -4.1165  -17.2170   23.3019 C.3     1  UNL1        0.0311
     17 C          -3.6292  -18.2981   22.3831 C.ar    1  UNL1       -0.0188
     18 C          -2.1679  -18.6323   22.3269 C.ar    1  UNL1        0.0164
     19 C          -1.6807  -19.7133   21.4082 C.ar    1  UNL1        0.0986
     20 N          -2.6546  -20.4601   20.5459 N.ar    1  UNL1       -0.2423
     21 C          -4.1158  -20.1259   20.6021 C.ar    1  UNL1        0.0985
     22 C          -4.6031  -19.0449   21.5208 C.ar    1  UNL1        0.0153
@<TRIPOS>BOND
     1    16    17    1
     2    17    18   ar
     3    18    19   ar
     4    19    20   ar
     5    20    21   ar
     6    21    22   ar
     7    22     1    1
     8     1     2   ar
     9     2     3   ar
    10     3     4    1
    11     3     5   ar
    12     5     6   ar
    13     6     7   ar
    14     6     8    1
    15     8     9    1
    16     9    10    1
    17    10    11   ar
    18    11    12   ar
    19    12    13   ar
    20    13    14    1
    21    13    15   ar
    22    22    17   ar
    23     7     1   ar
    24    15    10   ar
    25    15     5    1
@<TRIPOS>MOLECULE
*****
 22 25 0 0 0
SMALL
GASTEIGER

@<TRIPOS>ATOM
      1 C         -16.1432   -6.4082   19.3567 C.ar    1  UNL1        0.0032
      2 C         -15.2814   -7.4485   18.7048 C.ar    1  UNL1        0.0312
      3 C         -13.8414   -7.1511   18.4082 C.ar    1  UNL1        0.1558
      4 F         -12.9795   -8.1915   17.7563 F       1  UNL1       -0.2026
      5 C         -13.2632   -5.8134   18.7635 C.ar    1  UNL1        0.0896
      6 C         -14.1250   -4.7731   19.4154 C.ar    1  UNL1       -0.0034
      7 C         -15.5651   -5.0706   19.7120 C.ar    1  UNL1       -0.0026
      8 C         -13.5469   -3.4355   19.7707 C.3     1  UNL1        0.0359
      9 C         -12.1069   -3.1380   19.4742 C.3     1  UNL1        0.0709
     10 C         -11.2451   -4.1783   18.8223 C.ar    1  UNL1        0.1472
     11 N          -9.8025   -4.1728   18.4113 N.ar    1  UNL1       -0.1333
     12 N          -9.4891   -5.5072   17.8020 N.ar    1  UNL1       -0.1333
     13 C         -10.7380   -6.3373   17.8363 C.ar    1  UNL1        0.1473
     14 C         -10.8771   -7.7421   17.3292 C.3     1  UNL1        0.0742
     15 N         -11.8232   -5.5160   18.4669 N.ar    1  UNL1       -0.2788
     16 C         -16.9469   -9.1396   20.3022 C.3     1  UNL1        0.0311
     17 C         -17.9851   -8.0712   20.1260 C.ar    1  UNL1       -0.0188
     18 C         -19.4252   -8.3687   20.4225 C.ar    1  UNL1        0.0164
     19 C         -20.4633   -7.3004   20.2463 C.ar    1  UNL1        0.0986
     20 N         -20.0614   -5.9348   19.7735 N.ar    1  UNL1       -0.2423
     21 C         -18.6214   -5.6374   19.4770 C.ar    1  UNL1        0.0985
     22 C         -17.5833   -6.7057   19.6532 C.ar    1  UNL1        0.0153
@<TRIPOS>BOND
     1    16    17    1
     2    17    18   ar
     3    18    19   ar
     4    19    20   ar
     5    20    21   ar
     6    21    22   ar
     7    22     1    1
     8     1     2   ar
     9     2     3   ar
    10     3     4    1
    11     3     5   ar
    12     5     6   ar
    13     6     7   ar
    14     6     8    1
    15     8     9    1
    16     9    10    1
    17    10    11   ar
    18    11    12   ar
    19    12    13   ar
    20    13    14    1
    21    13    15   ar
    22    22    17   ar
    23     7     1   ar
    24    15    10   ar
    25    15     5    1
@<TRIPOS>MOLECULE
*****
 22 25 0 0 0
SMALL
GASTEIGER

@<TRIPOS>ATOM
      1 C          -6.9406  -19.1188   21.6976 C.ar    1  UNL1        0.0032
      2 C          -7.5084  -19.2855   23.0759 C.ar    1  UNL1        0.0312
      3 C          -8.9668  -19.0351   23.3216 C.ar    1  UNL1        0.1558
      4 F          -9.5346  -19.2018   24.7000 F       1  UNL1       -0.2026
      5 C          -9.8574  -18.6181   22.1889 C.ar    1  UNL1        0.0896
      6 C          -9.2896  -18.4514   20.8106 C.ar    1  UNL1       -0.0034
      7 C          -7.8311  -18.7018   20.5649 C.ar    1  UNL1       -0.0026
      8 C         -10.1801  -18.0344   19.6780 C.3     1  UNL1        0.0359
      9 C         -11.6386  -17.7839   19.9236 C.3     1  UNL1        0.0709
     10 C         -12.2064  -17.9506   21.3019 C.ar    1  UNL1        0.1472
     11 N         -13.5942  -17.7758   21.8436 N.ar    1  UNL1       -0.1333
     12 N         -13.5613  -18.0847   23.3110 N.ar    1  UNL1       -0.1333
     13 C         -12.1532  -18.4506   23.6763 C.ar    1  UNL1        0.1473
     14 C         -11.6677  -18.8323   25.0433 C.3     1  UNL1        0.0742
     15 N         -11.3158  -18.3677   22.4346 N.ar    1  UNL1       -0.2788
     16 C          -6.0890  -21.2555   19.7715 C.3     1  UNL1        0.0311
     17 C          -5.0563  -20.4375   20.4890 C.ar    1  UNL1       -0.0188
     18 C          -3.5978  -20.6879   20.2434 C.ar    1  UNL1        0.0164
     19 C          -2.5653  -19.8699   20.9608 C.ar    1  UNL1        0.0986
     20 N          -2.9911  -18.8016   21.9238 N.ar    1  UNL1       -0.2423
     21 C          -4.4496  -18.5513   22.1694 C.ar    1  UNL1        0.0985
     22 C          -5.4821  -19.3692   21.4519 C.ar    1  UNL1        0.0153
@<TRIPOS>BOND
     1    16    17    1
     2    17    18   ar
     3    18    19   ar
     4    19    20   ar
     5    20    21   ar
     6    21    22   ar
     7    22     1    1
     8     1     2   ar
     9     2     3   ar
    10     3     4    1
    11     3     5   ar
    12     5     6   ar
    13     6     7   ar
    14     6     8    1
    15     8     9    1
    16     9    10    1
    17    10    11   ar
    18    11    12   ar
    19    12    13   ar
    20    13    14    1
    21    13    15   ar
    22    22    17   ar
    23     7     1   ar
    24    15    10   ar
    25    15     5    1
@<TRIPOS>MOLECULE
*****
 22 25 0 0 0
SMALL
GASTEIGER

@<TRIPOS>ATOM
      1 C         -13.3982   -6.5500   18.3224 C.ar    1  UNL1        0.0032
      2 C         -13.6200   -8.0209   18.1299 C.ar    1  UNL1        0.0312
      3 C         -14.9790   -8.6114   18.3634 C.ar    1  UNL1        0.1558
      4 F         -15.2008  -10.0824   18.1709 F       1  UNL1       -0.2026
      5 C         -16.1162   -7.7308   18.7893 C.ar    1  UNL1        0.0896
      6 C         -15.8944   -6.2599   18.9818 C.ar    1  UNL1       -0.0034
      7 C         -14.5354   -5.6695   18.7483 C.ar    1  UNL1       -0.0026
      8 C         -17.0316   -5.3794   19.4076 C.3     1  UNL1        0.0359
      9 C         -18.3907   -5.9698   19.6411 C.3     1  UNL1        0.0709
     10 C         -18.6124   -7.4407   19.4486 C.ar    1  UNL1        0.1472
     11 N         -19.8319   -8.3005   19.6027 N.ar    1  UNL1       -0.1333
     12 N         -19.4483   -9.7124   19.2721 N.ar    1  UNL1       -0.1333
     13 C         -17.9918   -9.7253   18.9136 C.ar    1  UNL1        0.1473
     14 C         -17.1923  -10.9305   18.5158 C.3     1  UNL1        0.0742
     15 N         -17.4752   -8.3213   19.0227 N.ar    1  UNL1       -0.2788
     16 C         -12.9358   -4.7276   15.9846 C.3     1  UNL1        0.0311
     17 C         -11.8079   -5.0484   16.9202 C.ar    1  UNL1       -0.0188
     18 C         -10.4488   -4.4580   16.6867 C.ar    1  UNL1        0.0164
     19 C          -9.3210   -4.7789   17.6222 C.ar    1  UNL1        0.0986
     20 N          -9.5523   -5.6901   18.7911 N.ar    1  UNL1       -0.2423
     21 C         -10.9114   -6.2804   19.0245 C.ar    1  UNL1        0.0985
     22 C         -12.0391   -5.9596   18.0890 C.ar    1  UNL1        0.0153
@<TRIPOS>BOND
     1    16    17    1
     2    17    18   ar
     3    18    19   ar
     4    19    20   ar
     5    20    21   ar
     6    21    22   ar
     7    22     1    1
     8     1     2   ar
     9     2     3   ar
    10     3     4    1
    11     3     5   ar
    12     5     6   ar
    13     6     7   ar
    14     6     8    1
    15     8     9    1
    16     9    10    1
    17    10    11   ar
    18    11    12   ar
    19    12    13   ar
    20    13    14    1
    21    13    15   ar
    22    22    17   ar
    23     7     1   ar
    24    15    10   ar
    25    15     5    1
