@<TRIPOS>MOLECULE
*****
 25 27 0 0 0
SMALL
GASTEIGER

@<TRIPOS>ATOM
      1 O          -8.1589  -16.3259   21.6096 O.2     1  UNL1       -0.2696
      2 C          -8.7332  -17.6449   22.0344 C.2     1  UNL1        0.2554
      3 N          -7.8351  -18.8344   22.2034 N.am    1  UNL1       -0.2605
      4 H          -8.2120  -19.7001   22.4822 H       1  UNL1        0.1571
      5 C          -6.3628  -18.7049   21.9476 C.ar    1  UNL1        0.1657
      6 N          -5.3859  -17.9375   22.7884 N.ar    1  UNL1       -0.2239
      7 C          -4.0282  -18.0784   22.1665 C.ar    1  UNL1        0.0894
      8 C          -2.6843  -17.5390   22.5575 C.ar    1  UNL1        0.0228
      9 C          -1.4781  -17.8541   21.7235 C.ar    1  UNL1        0.0382
     10 C          -1.6158  -18.7086   20.4983 C.ar    1  UNL1        0.1343
     11 O          -0.4095  -19.0237   19.6642 O.3     1  UNL1       -0.5055
     12 C          -2.9597  -19.2480   20.1073 C.ar    1  UNL1        0.0447
     13 C          -4.1659  -18.9329   20.9414 C.ar    1  UNL1        0.0527
     14 S          -5.6087  -19.3201   20.8061 S.2     1  UNL1       -0.0513
     15 H           0.4300  -18.6868   19.9085 H       1  UNL1        0.2922
     16 C         -10.2055  -17.7744   22.2902 C.ar    1  UNL1        0.1115
     17 C         -11.1861  -17.4775   21.1946 C.ar    1  UNL1        0.1469
     18 F         -10.6943  -17.0511   19.8432 F       1  UNL1       -0.2039
     19 C         -12.6584  -17.6070   21.4504 C.ar    1  UNL1        0.0330
     20 C         -13.1502  -18.0333   22.8019 C.ar    1  UNL1        0.0413
     21 C         -12.1697  -18.3302   23.8974 C.ar    1  UNL1        0.1613
     22 O         -12.6615  -18.7566   25.2488 O.3     1  UNL1       -0.5034
     23 C         -10.6973  -18.2007   23.6416 C.ar    1  UNL1        0.1800
     24 F          -9.7168  -18.4976   24.7372 F       1  UNL1       -0.2007
     25 H         -13.5812  -18.8375   25.4086 H       1  UNL1        0.2923
@<TRIPOS>BOND
     1     1     2    2
     2     2     3   am
     3     3     5    1
     4     5     6   ar
     5     6     7   ar
     6     7     8   ar
     7     8     9   ar
     8     9    10   ar
     9    10    11    1
    10    10    12   ar
    11    12    13   ar
    12    13    14   ar
    13     2    16    1
    14    16    17   ar
    15    17    18    1
    16    17    19   ar
    17    19    20   ar
    18    20    21   ar
    19    21    22    1
    20    21    23   ar
    21    23    24    1
    22    14     5   ar
    23    23    16   ar
    24    13     7   ar
    25     3     4    1
    26    11    15    1
    27    22    25    1
@<TRIPOS>MOLECULE
*****
 25 27 0 0 0
SMALL
GASTEIGER

@<TRIPOS>ATOM
      1 O          -7.8307  -16.4929   21.6261 O.2     1  UNL1       -0.2696
      2 C          -8.3229  -17.8396   22.0668 C.2     1  UNL1        0.2554
      3 N          -7.4068  -19.0263   22.0167 N.am    1  UNL1       -0.2605
      4 H          -7.7298  -19.9101   22.3060 H       1  UNL1        0.1571
      5 C          -5.9984  -18.8663   21.5259 C.ar    1  UNL1        0.1657
      6 N          -5.5655  -18.8130   20.0907 N.ar    1  UNL1       -0.2239
      7 C          -4.0752  -18.6452   20.0619 C.ar    1  UNL1        0.0894
      8 C          -3.0997  -18.5318   18.9281 C.ar    1  UNL1        0.0228
      9 C          -1.6359  -18.3681   19.2118 C.ar    1  UNL1        0.0382
     10 C          -1.1477  -18.3178   20.6292 C.ar    1  UNL1        0.1343
     11 O           0.3162  -18.1540   20.9128 O.3     1  UNL1       -0.5055
     12 C          -2.1232  -18.4312   21.7630 C.ar    1  UNL1        0.0447
     13 C          -3.5870  -18.5949   21.4793 C.ar    1  UNL1        0.0527
     14 S          -4.7756  -18.7315   22.3841 S.2     1  UNL1       -0.0513
     15 H           0.9256  -18.0832   20.2046 H       1  UNL1        0.2922
     16 C          -9.7313  -17.9996   22.5576 C.ar    1  UNL1        0.1115
     17 C          -9.9886  -18.4194   23.9746 C.ar    1  UNL1        0.1469
     18 F          -8.8375  -18.6792   24.9006 F       1  UNL1       -0.2039
     19 C         -11.3969  -18.5794   24.4654 C.ar    1  UNL1        0.0330
     20 C         -12.5480  -18.3196   23.5392 C.ar    1  UNL1        0.0413
     21 C         -12.2907  -17.8999   22.1224 C.ar    1  UNL1        0.1613
     22 O         -13.4417  -17.6401   21.1964 O.3     1  UNL1       -0.5034
     23 C         -10.8823  -17.7399   21.6316 C.ar    1  UNL1        0.1800
     24 F         -10.6250  -17.3201   20.2147 F       1  UNL1       -0.2007
     25 H         -14.3214  -17.7400   21.5030 H       1  UNL1        0.2923
@<TRIPOS>BOND
     1     1     2    2
     2     2     3   am
     3     3     5    1
     4     5     6   ar
     5     6     7   ar
     6     7     8   ar
     7     8     9   ar
     8     9    10   ar
     9    10    11    1
    10    10    12   ar
    11    12    13   ar
    12    13    14   ar
    13     2    16    1
    14    16    17   ar
    15    17    18    1
    16    17    19   ar
    17    19    20   ar
    18    20    21   ar
    19    21    22    1
    20    21    23   ar
    21    23    24    1
    22    14     5   ar
    23    23    16   ar
    24    13     7   ar
    25     3     4    1
    26    11    15    1
    27    22    25    1
@<TRIPOS>MOLECULE
*****
 25 27 0 0 0
SMALL
GASTEIGER

@<TRIPOS>ATOM
      1 O          -7.1167  -20.4506   22.3766 O.2     1  UNL1       -0.2696
      2 C          -6.4329  -19.2029   21.9013 C.2     1  UNL1        0.2554
      3 N          -7.2209  -17.9404   21.7146 N.am    1  UNL1       -0.2605
      4 H          -6.7721  -17.1216   21.4027 H       1  UNL1        0.1571
      5 C          -8.6929  -17.9255   22.0031 C.ar    1  UNL1        0.1657
      6 N          -9.7836  -17.6592   21.0085 N.ar    1  UNL1       -0.2239
      7 C         -11.0974  -17.7433   21.7276 C.ar    1  UNL1        0.0894
      8 C         -12.5115  -17.5712   21.2579 C.ar    1  UNL1        0.0228
      9 C         -13.6467  -17.7174   22.2273 C.ar    1  UNL1        0.0382
     10 C         -13.3679  -18.0356   23.6664 C.ar    1  UNL1        0.1343
     11 O         -14.5032  -18.1818   24.6358 O.3     1  UNL1       -0.5055
     12 C         -11.9538  -18.2077   24.1361 C.ar    1  UNL1        0.0447
     13 C         -10.8185  -18.0616   23.1667 C.ar    1  UNL1        0.0527
     14 S          -9.3325  -18.1741   23.3369 S.2     1  UNL1       -0.0513
     15 H         -15.3866  -18.0743   24.3424 H       1  UNL1        0.2922
     16 C          -4.9610  -19.2179   21.6128 C.ar    1  UNL1        0.1115
     17 C          -4.4080  -20.1585   20.5834 C.ar    1  UNL1        0.1469
     18 F          -5.3269  -21.0841   19.8426 F       1  UNL1       -0.2039
     19 C          -2.9361  -20.1735   20.2948 C.ar    1  UNL1        0.0330
     20 C          -2.0171  -19.2478   21.0357 C.ar    1  UNL1        0.0413
     21 C          -2.5701  -18.3073   22.0651 C.ar    1  UNL1        0.1613
     22 O          -1.6512  -17.3818   22.8059 O.3     1  UNL1       -0.5034
     23 C          -4.0420  -18.2924   22.3536 C.ar    1  UNL1        0.1800
     24 F          -4.5950  -17.3518   23.3829 F       1  UNL1       -0.2007
     25 H          -0.7317  -17.3911   22.6256 H       1  UNL1        0.2923
@<TRIPOS>BOND
     1     1     2    2
     2     2     3   am
     3     3     5    1
     4     5     6   ar
     5     6     7   ar
     6     7     8   ar
     7     8     9   ar
     8     9    10   ar
     9    10    11    1
    10    10    12   ar
    11    12    13   ar
    12    13    14   ar
    13     2    16    1
    14    16    17   ar
    15    17    18    1
    16    17    19   ar
    17    19    20   ar
    18    20    21   ar
    19    21    22    1
    20    21    23   ar
    21    23    24    1
    22    14     5   ar
    23    23    16   ar
    24    13     7   ar
    25     3     4    1
    26    11    15    1
    27    22    25    1
@<TRIPOS>MOLECULE
*****
 25 27 0 0 0
SMALL
GASTEIGER

@<TRIPOS>ATOM
      1 O          -6.6450  -20.0433   21.7781 O.2     1  UNL1       -0.2696
      2 C          -5.9910  -18.6940   21.8231 C.2     1  UNL1        0.2554
      3 N          -6.8215  -17.4651   22.0464 N.am    1  UNL1       -0.2605
      4 H          -6.3923  -16.5796   22.0759 H       1  UNL1        0.1571
      5 C          -8.3060  -17.5853   22.2246 C.ar    1  UNL1        0.1657
      6 N          -9.3366  -17.4670   21.1411 N.ar    1  UNL1       -0.2239
      7 C         -10.6881  -17.6535   21.7645 C.ar    1  UNL1        0.0894
      8 C         -12.0713  -17.6407   21.1844 C.ar    1  UNL1        0.0228
      9 C         -13.2593  -17.8616   22.0731 C.ar    1  UNL1        0.0382
     10 C         -13.0641  -18.0952   23.5419 C.ar    1  UNL1        0.1343
     11 O         -14.2521  -18.3161   24.4307 O.3     1  UNL1       -0.5055
     12 C         -11.6808  -18.1080   24.1220 C.ar    1  UNL1        0.0447
     13 C         -10.4929  -17.8871   23.2332 C.ar    1  UNL1        0.0527
     14 S          -9.0207  -17.8449   23.5176 S.2     1  UNL1       -0.0513
     15 H         -15.1162  -18.3082   24.0683 H       1  UNL1        0.2922
     16 C          -4.5065  -18.5739   21.6449 C.ar    1  UNL1        0.1115
     17 C          -3.6266  -18.3196   22.8329 C.ar    1  UNL1        0.1469
     18 F          -4.2313  -18.1855   24.1990 F       1  UNL1       -0.2039
     19 C          -2.1421  -18.1994   22.6547 C.ar    1  UNL1        0.0330
     20 C          -1.5374  -18.3335   21.2884 C.ar    1  UNL1        0.0413
     21 C          -2.4173  -18.5877   20.1005 C.ar    1  UNL1        0.1613
     22 O          -1.8126  -18.7218   18.7344 O.3     1  UNL1       -0.5034
     23 C          -3.9018  -18.7079   20.2788 C.ar    1  UNL1        0.1800
     24 F          -4.7817  -18.9622   19.0909 F       1  UNL1       -0.2007
     25 H          -0.8853  -18.6467   18.6231 H       1  UNL1        0.2923
@<TRIPOS>BOND
     1     1     2    2
     2     2     3   am
     3     3     5    1
     4     5     6   ar
     5     6     7   ar
     6     7     8   ar
     7     8     9   ar
     8     9    10   ar
     9    10    11    1
    10    10    12   ar
    11    12    13   ar
    12    13    14   ar
    13     2    16    1
    14    16    17   ar
    15    17    18    1
    16    17    19   ar
    17    19    20   ar
    18    20    21   ar
    19    21    22    1
    20    21    23   ar
    21    23    24    1
    22    14     5   ar
    23    23    16   ar
    24    13     7   ar
    25     3     4    1
    26    11    15    1
    27    22    25    1
@<TRIPOS>MOLECULE
*****
 25 27 0 0 0
SMALL
GASTEIGER

@<TRIPOS>ATOM
      1 O          -7.3083  -16.8981   21.6406 O.2     1  UNL1       -0.2696
      2 C          -7.7753  -18.3225   21.5845 C.2     1  UNL1        0.2554
      3 N          -6.8238  -19.4082   21.1775 N.am    1  UNL1       -0.2605
      4 H          -7.1303  -20.3431   21.1407 H       1  UNL1        0.1571
      5 C          -5.4052  -19.0697   20.8267 C.ar    1  UNL1        0.1657
      6 N          -4.9144  -18.6088   19.4863 N.ar    1  UNL1       -0.2239
      7 C          -3.4343  -18.3868   19.5858 C.ar    1  UNL1        0.0894
      8 C          -2.4178  -17.9318   18.5810 C.ar    1  UNL1        0.0228
      9 C          -0.9773  -17.8005   18.9781 C.ar    1  UNL1        0.0382
     10 C          -0.5533  -18.1242   20.3800 C.ar    1  UNL1        0.1343
     11 O           0.8873  -17.9929   20.7771 O.3     1  UNL1       -0.5055
     12 C          -1.5698  -18.5793   21.3848 C.ar    1  UNL1        0.0447
     13 C          -3.0102  -18.7106   20.9877 C.ar    1  UNL1        0.0527
     14 S          -4.2283  -19.1326   21.7546 S.2     1  UNL1       -0.0513
     15 H           1.5222  -17.7087   20.1494 H       1  UNL1        0.2922
     16 C          -9.1938  -18.6610   21.9354 C.ar    1  UNL1        0.1115
     17 C         -10.1318  -19.1542   20.8737 C.ar    1  UNL1        0.1469
     18 F          -9.6512  -19.3089   19.4613 F       1  UNL1       -0.2039
     19 C         -11.5503  -19.4928   21.2246 C.ar    1  UNL1        0.0330
     20 C         -12.0309  -19.3381   22.6371 C.ar    1  UNL1        0.0413
     21 C         -11.0930  -18.8449   23.6987 C.ar    1  UNL1        0.1613
     22 O         -11.5736  -18.6902   25.1111 O.3     1  UNL1       -0.5034
     23 C          -9.6744  -18.5063   23.3478 C.ar    1  UNL1        0.1800
     24 F          -8.7365  -18.0131   24.4094 F       1  UNL1       -0.2007
     25 H         -12.4597  -18.9017   25.3303 H       1  UNL1        0.2923
@<TRIPOS>BOND
     1     1     2    2
     2     2     3   am
     3     3     5    1
     4     5     6   ar
     5     6     7   ar
     6     7     8   ar
     7     8     9   ar
     8     9    10   ar
     9    10    11    1
    10    10    12   ar
    11    12    13   ar
    12    13    14   ar
    13     2    16    1
    14    16    17   ar
    15    17    18    1
    16    17    19   ar
    17    19    20   ar
    18    20    21   ar
    19    21    22    1
    20    21    23   ar
    21    23    24    1
    22    14     5   ar
    23    23    16   ar
    24    13     7   ar
    25     3     4    1
    26    11    15    1
    27    22    25    1
@<TRIPOS>MOLECULE
*****
 25 27 0 0 0
SMALL
GASTEIGER

@<TRIPOS>ATOM
      1 O         -14.3488   -6.2607   16.8988 O.2     1  UNL1       -0.2696
      2 C         -13.6070   -6.3493   18.1997 C.2     1  UNL1        0.2554
      3 N         -14.2071   -7.0926   19.3561 N.am    1  UNL1       -0.2605
      4 H         -13.7203   -7.1507   20.2098 H       1  UNL1        0.1571
      5 C         -15.5489   -7.7474   19.2118 C.ar    1  UNL1        0.1657
      6 N         -16.8528   -7.2072   19.7198 N.ar    1  UNL1       -0.2239
      7 C         -17.9321   -8.1833   19.3561 C.ar    1  UNL1        0.0894
      8 C         -19.4125   -8.1787   19.5975 C.ar    1  UNL1        0.0228
      9 C         -20.2561   -9.3174   19.1061 C.ar    1  UNL1        0.0382
     10 C         -19.6193  -10.4609   18.3733 C.ar    1  UNL1        0.1343
     11 O         -20.4630  -11.5997   17.8819 O.3     1  UNL1       -0.5055
     12 C         -18.1389  -10.4655   18.1319 C.ar    1  UNL1        0.0447
     13 C         -17.2953   -9.3268   18.6233 C.ar    1  UNL1        0.0527
     14 S         -15.8224   -9.0573   18.5341 S.2     1  UNL1       -0.0513
     15 H         -21.3878  -11.5968   18.0327 H       1  UNL1        0.2922
     16 C         -12.2652   -5.6945   18.3440 C.ar    1  UNL1        0.1115
     17 C         -11.0138   -6.4944   18.1335 C.ar    1  UNL1        0.1469
     18 F         -11.1042   -7.9490   17.7787 F       1  UNL1       -0.2039
     19 C          -9.6720   -5.8396   18.2778 C.ar    1  UNL1        0.0330
     20 C          -9.5816   -4.3849   18.6326 C.ar    1  UNL1        0.0413
     21 C         -10.8330   -3.5851   18.8431 C.ar    1  UNL1        0.1613
     22 O         -10.7426   -2.1305   19.1978 O.3     1  UNL1       -0.5034
     23 C         -12.1748   -4.2399   18.6987 C.ar    1  UNL1        0.1800
     24 F         -13.4262   -3.4401   18.9092 F       1  UNL1       -0.2007
     25 H          -9.9044   -1.7215   19.2880 H       1  UNL1        0.2923
@<TRIPOS>BOND
     1     1     2    2
     2     2     3   am
     3     3     5    1
     4     5     6   ar
     5     6     7   ar
     6     7     8   ar
     7     8     9   ar
     8     9    10   ar
     9    10    11    1
    10    10    12   ar
    11    12    13   ar
    12    13    14   ar
    13     2    16    1
    14    16    17   ar
    15    17    18    1
    16    17    19   ar
    17    19    20   ar
    18    20    21   ar
    19    21    22    1
    20    21    23   ar
    21    23    24    1
    22    14     5   ar
    23    23    16   ar
    24    13     7   ar
    25     3     4    1
    26    11    15    1
    27    22    25    1
@<TRIPOS>MOLECULE
*****
 25 27 0 0 0
SMALL
GASTEIGER

@<TRIPOS>ATOM
      1 O           4.2894   -4.7538   21.0321 O.2     1  UNL1       -0.2696
      2 C           4.8267   -3.3545   20.9730 C.2     1  UNL1        0.2554
      3 N           6.0384   -2.9818   21.7747 N.am    1  UNL1       -0.2605
      4 H           6.3911   -2.0635   21.7359 H       1  UNL1        0.1571
      5 C           6.7129   -4.0084   22.6357 C.ar    1  UNL1        0.1657
      6 N           7.5574   -5.1491   22.1502 N.ar    1  UNL1       -0.2239
      7 C           8.0278   -5.9202   23.3477 C.ar    1  UNL1        0.0894
      8 C           8.8888   -7.1412   23.4805 C.ar    1  UNL1        0.0228
      9 C           9.1960   -7.6982   24.8389 C.ar    1  UNL1        0.0382
     10 C           8.6421   -7.0342   26.0646 C.ar    1  UNL1        0.1343
     11 O           8.9494   -7.5912   27.4231 O.3     1  UNL1       -0.5055
     12 C           7.7811   -5.8131   25.9318 C.ar    1  UNL1        0.0447
     13 C           7.4739   -5.2561   24.5734 C.ar    1  UNL1        0.0527
     14 S           6.6613   -4.0746   24.1333 S.2     1  UNL1       -0.0513
     15 H           9.4872   -8.3540   27.5060 H       1  UNL1        0.2922
     16 C           4.1523   -2.3279   20.1120 C.ar    1  UNL1        0.1115
     17 C           3.2349   -1.3154   20.7313 C.ar    1  UNL1        0.1469
     18 F           2.9920   -1.3296   22.2114 F       1  UNL1       -0.2039
     19 C           2.5604   -0.2888   19.8703 C.ar    1  UNL1        0.0330
     20 C           2.8033   -0.2748   18.3901 C.ar    1  UNL1        0.0413
     21 C           3.7206   -1.2872   17.7710 C.ar    1  UNL1        0.1613
     22 O           3.9635   -1.2731   16.2909 O.3     1  UNL1       -0.5034
     23 C           4.3951   -2.3138   18.6319 C.ar    1  UNL1        0.1800
     24 F           5.3125   -3.3262   18.0128 F       1  UNL1       -0.2007
     25 H           3.5422   -0.6318   15.7531 H       1  UNL1        0.2923
@<TRIPOS>BOND
     1     1     2    2
     2     2     3   am
     3     3     5    1
     4     5     6   ar
     5     6     7   ar
     6     7     8   ar
     7     8     9   ar
     8     9    10   ar
     9    10    11    1
    10    10    12   ar
    11    12    13   ar
    12    13    14   ar
    13     2    16    1
    14    16    17   ar
    15    17    18    1
    16    17    19   ar
    17    19    20   ar
    18    20    21   ar
    19    21    22    1
    20    21    23   ar
    21    23    24    1
    22    14     5   ar
    23    23    16   ar
    24    13     7   ar
    25     3     4    1
    26    11    15    1
    27    22    25    1
@<TRIPOS>MOLECULE
*****
 25 27 0 0 0
SMALL
GASTEIGER

@<TRIPOS>ATOM
      1 O         -12.3709   -5.2086   19.3549 O.2     1  UNL1       -0.2696
      2 C         -13.0025   -4.2692   18.3707 C.2     1  UNL1        0.2554
      3 N         -14.3426   -4.5923   17.7792 N.am    1  UNL1       -0.2605
      4 H         -14.7571   -3.9757   17.1333 H       1  UNL1        0.1571
      5 C         -15.0511   -5.8547   18.1720 C.ar    1  UNL1        0.1657
      6 N         -16.2302   -5.9537   19.0939 N.ar    1  UNL1       -0.2239
      7 C         -16.6128   -7.4000   19.2035 C.ar    1  UNL1        0.0894
      8 C         -17.6977   -8.0959   19.9707 C.ar    1  UNL1        0.0228
      9 C         -17.8399   -9.5866   19.8838 C.ar    1  UNL1        0.0382
     10 C         -16.8971  -10.3814   19.0297 C.ar    1  UNL1        0.1343
     11 O         -17.0394  -11.8721   18.9428 O.3     1  UNL1       -0.5055
     12 C         -15.8122   -9.6855   18.2625 C.ar    1  UNL1        0.0447
     13 C         -15.6700   -8.1948   18.3494 C.ar    1  UNL1        0.0527
     14 S         -14.7049   -7.2398   17.7119 S.2     1  UNL1       -0.0513
     15 H         -17.7171  -12.3068   19.4220 H       1  UNL1        0.2922
     16 C         -12.2940   -3.0067   17.9779 C.ar    1  UNL1        0.1115
     17 C         -11.0510   -3.0736   17.1409 C.ar    1  UNL1        0.1469
     18 F         -10.5166   -4.4029   16.6966 F       1  UNL1       -0.2039
     19 C         -10.3425   -1.8112   16.7481 C.ar    1  UNL1        0.0330
     20 C         -10.8770   -0.4819   17.1924 C.ar    1  UNL1        0.0413
     21 C         -12.1200   -0.4150   18.0294 C.ar    1  UNL1        0.1613
     22 O         -12.6544    0.9142   18.4736 O.3     1  UNL1       -0.5034
     23 C         -12.8285   -1.6775   18.4221 C.ar    1  UNL1        0.1800
     24 F         -14.0714   -1.6106   19.2591 F       1  UNL1       -0.2007
     25 H         -12.2118    1.7028   18.2282 H       1  UNL1        0.2923
@<TRIPOS>BOND
     1     1     2    2
     2     2     3   am
     3     3     5    1
     4     5     6   ar
     5     6     7   ar
     6     7     8   ar
     7     8     9   ar
     8     9    10   ar
     9    10    11    1
    10    10    12   ar
    11    12    13   ar
    12    13    14   ar
    13     2    16    1
    14    16    17   ar
    15    17    18    1
    16    17    19   ar
    17    19    20   ar
    18    20    21   ar
    19    21    22    1
    20    21    23   ar
    21    23    24    1
    22    14     5   ar
    23    23    16   ar
    24    13     7   ar
    25     3     4    1
    26    11    15    1
    27    22    25    1
@<TRIPOS>MOLECULE
*****
 25 27 0 0 0
SMALL
GASTEIGER

@<TRIPOS>ATOM
      1 O         -13.5459   -5.8039   20.0991 O.2     1  UNL1       -0.2696
      2 C         -13.7731   -4.8258   18.9848 C.2     1  UNL1        0.2554
      3 N         -15.0013   -4.9342   18.1305 N.am    1  UNL1       -0.2605
      4 H         -15.1504   -4.2922   17.3992 H       1  UNL1        0.1571
      5 C         -16.0022   -6.0207   18.3904 C.ar    1  UNL1        0.1657
      6 N         -16.9786   -6.0663   19.5282 N.ar    1  UNL1       -0.2239
      7 C         -17.7823   -7.3262   19.3992 C.ar    1  UNL1        0.0894
      8 C         -18.8890   -7.9006   20.2330 C.ar    1  UNL1        0.0228
      9 C         -19.5159   -9.2081   19.8493 C.ar    1  UNL1        0.0382
     10 C         -19.0363   -9.9412   18.6318 C.ar    1  UNL1        0.1343
     11 O         -19.6633  -11.2488   18.2481 O.3     1  UNL1       -0.5055
     12 C         -17.9297   -9.3668   17.7979 C.ar    1  UNL1        0.0447
     13 C         -17.3027   -8.0593   18.1816 C.ar    1  UNL1        0.0527
     14 S         -16.2025   -7.2525   17.5582 S.2     1  UNL1       -0.0513
     15 H         -20.3546  -11.6076   18.7690 H       1  UNL1        0.2922
     16 C         -12.7722   -3.7392   18.7249 C.ar    1  UNL1        0.1115
     17 C         -13.0135   -2.3556   19.2516 C.ar    1  UNL1        0.1469
     18 F         -14.2556   -2.0585   20.0382 F       1  UNL1       -0.2039
     19 C         -12.0126   -1.2690   18.9917 C.ar    1  UNL1        0.0330
     20 C         -10.7704   -1.5661   18.2050 C.ar    1  UNL1        0.0413
     21 C         -10.5291   -2.9497   17.6784 C.ar    1  UNL1        0.1613
     22 O          -9.2870   -3.2468   16.8918 O.3     1  UNL1       -0.5034
     23 C         -11.5301   -4.0363   17.9383 C.ar    1  UNL1        0.1800
     24 F         -11.2888   -5.4199   17.4116 F       1  UNL1       -0.2007
     25 H          -8.6617   -2.5680   16.7294 H       1  UNL1        0.2923
@<TRIPOS>BOND
     1     1     2    2
     2     2     3   am
     3     3     5    1
     4     5     6   ar
     5     6     7   ar
     6     7     8   ar
     7     8     9   ar
     8     9    10   ar
     9    10    11    1
    10    10    12   ar
    11    12    13   ar
    12    13    14   ar
    13     2    16    1
    14    16    17   ar
    15    17    18    1
    16    17    19   ar
    17    19    20   ar
    18    20    21   ar
    19    21    22    1
    20    21    23   ar
    21    23    24    1
    22    14     5   ar
    23    23    16   ar
    24    13     7   ar
    25     3     4    1
    26    11    15    1
    27    22    25    1
