@<TRIPOS>MOLECULE
*****
 32 36 0 0 0
SMALL
GASTEIGER

@<TRIPOS>ATOM
      1 O           5.2401   -1.4383   27.9239 O.2     1  UNL1       -0.2522
      2 C           6.0782   -2.4858   27.2530 C.2     1  UNL1        0.3077
      3 N           7.1105   -3.2377   28.0397 N.am    1  UNL1       -0.2681
      4 N           5.8840   -2.7813   25.7952 N.am    1  UNL1       -0.2640
      5 C           4.8518   -2.0294   25.0086 C.3     1  UNL1        0.0950
      6 C           4.6576   -2.3250   23.5508 C.3     1  UNL1        0.0240
      7 C           5.4958   -3.3725   22.8799 C.3     1  UNL1        0.0304
      8 C           6.5281   -4.1244   23.6665 C.3     1  UNL1        0.0240
      9 C           6.7222   -3.8289   25.1243 C.3     1  UNL1        0.0950
     10 H           7.6606   -3.9252   27.5994 H       1  UNL1        0.1564
     11 C           7.3046   -2.9421   29.4975 C.ar    1  UNL1        0.0516
     12 C           8.1784   -1.7988   29.9209 C.ar    1  UNL1        0.0147
     13 C           8.3726   -1.5031   31.3787 C.ar    1  UNL1        0.0013
     14 C           7.6930   -2.3509   32.4128 C.ar    1  UNL1        0.0001
     15 C           6.8192   -3.4942   31.9893 C.ar    1  UNL1        0.0013
     16 C           6.6250   -3.7898   30.5316 C.ar    1  UNL1        0.0147
     17 C           5.3017   -3.6681   21.4221 C.3     1  UNL1        0.1128
     18 O           6.3868   -4.3520   20.6446 O.3     1  UNL1       -0.3844
     19 H           6.1021   -4.4668   19.7244 H       1  UNL1        0.2103
     20 C           4.0223   -3.2797   20.7420 C.3     1  UNL1        0.0564
     21 C           3.9932   -2.0996   19.8165 C.3     1  UNL1        0.1119
     22 C           2.8832   -1.0973   19.7006 C.ar    1  UNL1       -0.0002
     23 C           1.5680   -0.9695   20.4105 C.ar    1  UNL1       -0.0024
     24 C           0.6426    0.1627   20.0767 C.ar    1  UNL1       -0.0003
     25 C           1.0322    1.1672   19.0331 C.ar    1  UNL1        0.0000
     26 C           2.3474    1.0394   18.3232 C.ar    1  UNL1        0.0012
     27 C           3.2729   -0.0928   18.6570 C.ar    1  UNL1        0.0152
     28 C           4.6237   -0.4743   18.1279 C.ar    1  UNL1        0.0804
     29 C           5.6994   -0.0892   17.1559 C.ar    1  UNL1        0.1177
     30 N           6.8093   -1.0916   17.2719 N.ar    1  UNL1       -0.2223
     31 C           6.4196   -2.0961   18.3156 C.ar    1  UNL1        0.1788
     32 N           5.0688   -1.7146   18.8446 N.ar    1  UNL1       -0.3069
@<TRIPOS>BOND
     1     1     2    2
     2     2     3   am
     3     3    11    1
     4    11    12   ar
     5    12    13   ar
     6    13    14   ar
     7    14    15   ar
     8    15    16   ar
     9     2     4   am
    10     4     5    1
    11     5     6    1
    12     6     7    1
    13     7    17    1
    14    17    18    1
    15    17    20    1
    16    20    21    1
    17    21    22    1
    18    22    23   ar
    19    23    24   ar
    20    24    25   ar
    21    25    26   ar
    22    26    27   ar
    23    27    28    1
    24    28    29   ar
    25    29    30   ar
    26    30    31   ar
    27    31    32   ar
    28     7     8    1
    29     8     9    1
    30    16    11   ar
    31     9     4    1
    32    32    21    1
    33    27    22   ar
    34    32    28   ar
    35     3    10    1
    36    18    19    1
@<TRIPOS>MOLECULE
*****
 32 36 0 0 0
SMALL
GASTEIGER

@<TRIPOS>ATOM
      1 O           5.7224   -1.9616   27.7951 O.2     1  UNL1       -0.2522
      2 C           4.7649   -1.4617   26.7543 C.2     1  UNL1        0.3077
      3 N           3.7281   -0.4405   27.1178 N.am    1  UNL1       -0.2681
      4 N           4.8443   -1.9829   25.3500 N.am    1  UNL1       -0.2640
      5 C           5.8811   -3.0041   24.9866 C.3     1  UNL1        0.0950
      6 C           5.9604   -3.5253   23.5823 C.3     1  UNL1        0.0240
      7 C           5.0029   -3.0253   22.5415 C.3     1  UNL1        0.0304
      8 C           3.9661   -2.0041   22.9049 C.3     1  UNL1        0.0240
      9 C           3.8868   -1.4829   24.3092 C.3     1  UNL1        0.0950
     10 H           3.0996   -0.1123   26.4348 H       1  UNL1        0.1564
     11 C           3.6488    0.0808   28.5222 C.ar    1  UNL1        0.0516
     12 C           4.5312    1.2149   28.9521 C.ar    1  UNL1        0.0147
     13 C           4.4520    1.7362   30.3564 C.ar    1  UNL1        0.0013
     14 C           3.4902    1.1232   31.3307 C.ar    1  UNL1        0.0001
     15 C           2.6077   -0.0110   30.9008 C.ar    1  UNL1        0.0013
     16 C           2.6870   -0.5322   29.4964 C.ar    1  UNL1        0.0147
     17 C           5.0822   -3.5465   21.1372 C.3     1  UNL1        0.1128
     18 O           6.2747   -4.3443   20.6995 O.3     1  UNL1       -0.3844
     19 H           6.1678   -4.6024   19.7706 H       1  UNL1        0.2103
     20 C           3.9690   -3.2699   20.1705 C.3     1  UNL1        0.0564
     21 C           3.9340   -1.9728   19.4181 C.3     1  UNL1        0.1119
     22 C           2.8217   -0.9668   19.4464 C.ar    1  UNL1       -0.0002
     23 C           1.5090   -0.9422   20.1717 C.ar    1  UNL1       -0.0024
     24 C           0.5800    0.2232   20.0018 C.ar    1  UNL1       -0.0003
     25 C           0.9638    1.3639   19.1065 C.ar    1  UNL1        0.0000
     26 C           2.2765    1.3392   18.3811 C.ar    1  UNL1        0.0012
     27 C           3.2054    0.1739   18.5511 C.ar    1  UNL1        0.0152
     28 C           4.5549   -0.1271   17.9695 C.ar    1  UNL1        0.0804
     29 C           5.6262    0.3919   17.0567 C.ar    1  UNL1        0.1177
     30 N           6.7385   -0.6141   17.0284 N.ar    1  UNL1       -0.2223
     31 C           6.3548   -1.7548   17.9237 C.ar    1  UNL1        0.1788
     32 N           5.0052   -1.4538   18.5053 N.ar    1  UNL1       -0.3069
@<TRIPOS>BOND
     1     1     2    2
     2     2     3   am
     3     3    11    1
     4    11    12   ar
     5    12    13   ar
     6    13    14   ar
     7    14    15   ar
     8    15    16   ar
     9     2     4   am
    10     4     5    1
    11     5     6    1
    12     6     7    1
    13     7    17    1
    14    17    18    1
    15    17    20    1
    16    20    21    1
    17    21    22    1
    18    22    23   ar
    19    23    24   ar
    20    24    25   ar
    21    25    26   ar
    22    26    27   ar
    23    27    28    1
    24    28    29   ar
    25    29    30   ar
    26    30    31   ar
    27    31    32   ar
    28     7     8    1
    29     8     9    1
    30    16    11   ar
    31     9     4    1
    32    32    21    1
    33    27    22   ar
    34    32    28   ar
    35     3    10    1
    36    18    19    1
@<TRIPOS>MOLECULE
*****
 32 36 0 0 0
SMALL
GASTEIGER

@<TRIPOS>ATOM
      1 O           8.5022   -4.2744   24.9866 O.2     1  UNL1       -0.2522
      2 C           7.0470   -4.0362   24.7113 C.2     1  UNL1        0.3077
      3 N           6.0811   -3.8975   25.8506 N.am    1  UNL1       -0.2681
      4 N           6.5578   -3.9369   23.2968 N.am    1  UNL1       -0.2640
      5 C           7.5237   -4.0757   22.1577 C.3     1  UNL1        0.0950
      6 C           7.0344   -3.9763   20.7432 C.3     1  UNL1        0.0240
      7 C           5.5793   -3.7382   20.4679 C.3     1  UNL1        0.0304
      8 C           4.6133   -3.5994   21.6071 C.3     1  UNL1        0.0240
      9 C           5.1026   -3.6988   23.0215 C.3     1  UNL1        0.0950
     10 H           5.1260   -3.7412   25.6699 H       1  UNL1        0.1564
     11 C           6.5704   -3.9968   27.2650 C.ar    1  UNL1        0.0516
     12 C           7.2876   -2.8390   27.8935 C.ar    1  UNL1        0.0147
     13 C           7.7769   -2.9383   29.3080 C.ar    1  UNL1        0.0013
     14 C           7.5490   -4.1954   30.0939 C.ar    1  UNL1        0.0001
     15 C           6.8318   -5.3533   29.4654 C.ar    1  UNL1        0.0013
     16 C           6.3425   -5.2540   28.0509 C.ar    1  UNL1        0.0147
     17 C           5.0900   -3.6388   19.0535 C.3     1  UNL1        0.1128
     18 O           4.0767   -4.6183   18.5398 O.3     1  UNL1       -0.3844
     19 H           3.8705   -4.4147   17.6141 H       1  UNL1        0.2103
     20 C           5.6140   -2.5599   18.1526 C.3     1  UNL1        0.0564
     21 C           5.0862   -1.1610   18.2721 C.3     1  UNL1        0.1119
     22 C           3.7924   -0.7588   18.9160 C.ar    1  UNL1       -0.0002
     23 C           2.7132   -1.5576   19.5846 C.ar    1  UNL1       -0.0024
     24 C           1.5075   -0.8654   20.1478 C.ar    1  UNL1       -0.0003
     25 C           1.3811    0.6255   20.0424 C.ar    1  UNL1        0.0000
     26 C           2.4604    1.4243   19.3738 C.ar    1  UNL1        0.0012
     27 C           3.6660    0.7321   18.8106 C.ar    1  UNL1        0.0152
     28 C           4.8817    1.2514   18.1016 C.ar    1  UNL1        0.0804
     29 C           5.5548    2.4938   17.5982 C.ar    1  UNL1        0.1177
     30 N           6.8486    2.0916   16.9544 N.ar    1  UNL1       -0.2223
     31 C           6.9750    0.6006   17.0598 C.ar    1  UNL1        0.1788
     32 N           5.7594    0.0814   17.7688 N.ar    1  UNL1       -0.3069
@<TRIPOS>BOND
     1     1     2    2
     2     2     3   am
     3     3    11    1
     4    11    12   ar
     5    12    13   ar
     6    13    14   ar
     7    14    15   ar
     8    15    16   ar
     9     2     4   am
    10     4     5    1
    11     5     6    1
    12     6     7    1
    13     7    17    1
    14    17    18    1
    15    17    20    1
    16    20    21    1
    17    21    22    1
    18    22    23   ar
    19    23    24   ar
    20    24    25   ar
    21    25    26   ar
    22    26    27   ar
    23    27    28    1
    24    28    29   ar
    25    29    30   ar
    26    30    31   ar
    27    31    32   ar
    28     7     8    1
    29     8     9    1
    30    16    11   ar
    31     9     4    1
    32    32    21    1
    33    27    22   ar
    34    32    28   ar
    35     3    10    1
    36    18    19    1
@<TRIPOS>MOLECULE
*****
 32 36 0 0 0
SMALL
GASTEIGER

@<TRIPOS>ATOM
      1 O           3.0823   -0.1142   17.9829 O.2     1  UNL1       -0.2522
      2 C           2.3587   -0.2037   19.2938 C.2     1  UNL1        0.3077
      3 N           2.6821   -1.3088   20.2551 N.am    1  UNL1       -0.2681
      4 N           1.3117    0.8121   19.6433 N.am    1  UNL1       -0.2640
      5 C           0.9884    1.9171   18.6820 C.3     1  UNL1        0.0950
      6 C          -0.0586    2.9328   19.0316 C.3     1  UNL1        0.0240
      7 C          -0.7822    2.8434   20.3425 C.3     1  UNL1        0.0304
      8 C          -0.4589    1.7383   21.3038 C.3     1  UNL1        0.0240
      9 C           0.5881    0.7226   20.9542 C.3     1  UNL1        0.0950
     10 H           2.2072   -1.3675   21.1154 H       1  UNL1        0.1564
     11 C           3.7291   -2.3245   19.9055 C.ar    1  UNL1        0.0516
     12 C           3.3263   -3.6470   19.3235 C.ar    1  UNL1        0.0147
     13 C           4.3732   -4.6627   18.9739 C.ar    1  UNL1        0.0013
     14 C           5.8230   -4.3559   19.2062 C.ar    1  UNL1        0.0001
     15 C           6.2259   -3.0333   19.7882 C.ar    1  UNL1        0.0013
     16 C           5.1789   -2.0176   20.1378 C.ar    1  UNL1        0.0147
     17 C          -1.8292    3.8590   20.6921 C.3     1  UNL1        0.1128
     18 O          -1.4529    5.3034   20.8408 O.3     1  UNL1       -0.3844
     19 H          -2.2413    5.8214   21.0666 H       1  UNL1        0.2103
     20 C          -3.2526    3.4303   20.8930 C.3     1  UNL1        0.0564
     21 C          -3.9494    3.7263   22.1879 C.3     1  UNL1        0.1119
     22 C          -3.3434    3.6323   23.5568 C.ar    1  UNL1       -0.0002
     23 C          -1.9706    3.2466   24.0223 C.ar    1  UNL1       -0.0024
     24 C          -1.6485    3.2450   25.4873 C.ar    1  UNL1       -0.0003
     25 C          -2.6990    3.6289   26.4867 C.ar    1  UNL1        0.0000
     26 C          -4.0718    4.0146   26.0212 C.ar    1  UNL1        0.0012
     27 C          -4.3939    4.0163   24.5562 C.ar    1  UNL1        0.0152
     28 C          -5.6493    4.3476   23.8049 C.ar    1  UNL1        0.0804
     29 C          -7.0745    4.7897   23.9584 C.ar    1  UNL1        0.1177
     30 N          -7.6805    4.8837   22.5894 N.ar    1  UNL1       -0.2223
     31 C          -6.6299    4.4998   21.5900 C.ar    1  UNL1        0.1788
     32 N          -5.3746    4.1684   22.3412 N.ar    1  UNL1       -0.3069
@<TRIPOS>BOND
     1     1     2    2
     2     2     3   am
     3     3    11    1
     4    11    12   ar
     5    12    13   ar
     6    13    14   ar
     7    14    15   ar
     8    15    16   ar
     9     2     4   am
    10     4     5    1
    11     5     6    1
    12     6     7    1
    13     7    17    1
    14    17    18    1
    15    17    20    1
    16    20    21    1
    17    21    22    1
    18    22    23   ar
    19    23    24   ar
    20    24    25   ar
    21    25    26   ar
    22    26    27   ar
    23    27    28    1
    24    28    29   ar
    25    29    30   ar
    26    30    31   ar
    27    31    32   ar
    28     7     8    1
    29     8     9    1
    30    16    11   ar
    31     9     4    1
    32    32    21    1
    33    27    22   ar
    34    32    28   ar
    35     3    10    1
    36    18    19    1
@<TRIPOS>MOLECULE
*****
 32 36 0 0 0
SMALL
GASTEIGER

@<TRIPOS>ATOM
      1 O          -2.6866    5.0466   23.7505 O.2     1  UNL1       -0.2522
      2 C          -2.4411    3.9379   24.7305 C.2     1  UNL1        0.3077
      3 N          -3.4293    3.6744   25.8278 N.am    1  UNL1       -0.2681
      4 N          -1.2074    3.0928   24.6132 N.am    1  UNL1       -0.2640
      5 C          -0.2193    3.3564   23.5159 C.3     1  UNL1        0.0950
      6 C           1.0143    2.5112   23.3986 C.3     1  UNL1        0.0240
      7 C           1.2598    1.4025   24.3786 C.3     1  UNL1        0.0304
      8 C           0.2718    1.1389   25.4760 C.3     1  UNL1        0.0240
      9 C          -0.9619    1.9841   25.5932 C.3     1  UNL1        0.0950
     10 H          -3.2681    2.9468   26.4711 H       1  UNL1        0.1564
     11 C          -4.6629    4.5196   25.9451 C.ar    1  UNL1        0.0516
     12 C          -5.7355    4.4300   24.9003 C.ar    1  UNL1        0.0147
     13 C          -6.9692    5.2751   25.0175 C.ar    1  UNL1        0.0013
     14 C          -7.1303    6.2099   26.1795 C.ar    1  UNL1        0.0001
     15 C          -6.0577    6.2996   27.2243 C.ar    1  UNL1        0.0013
     16 C          -4.8240    5.4544   27.1071 C.ar    1  UNL1        0.0147
     17 C           2.4935    0.5573   24.2614 C.3     1  UNL1        0.1128
     18 O           2.7469   -0.5412   25.2509 O.3     1  UNL1       -0.3844
     19 H           3.5808   -0.9863   25.0333 H       1  UNL1        0.2103
     20 C           3.4738    0.8106   23.1546 C.3     1  UNL1        0.0564
     21 C           3.3333    0.0871   21.8481 C.3     1  UNL1        0.1119
     22 C           3.6806   -1.3499   21.5943 C.ar    1  UNL1       -0.0002
     23 C           4.2295   -2.4227   22.4875 C.ar    1  UNL1       -0.0024
     24 C           4.4806   -3.7971   21.9419 C.ar    1  UNL1       -0.0003
     25 C           4.1829   -4.0988   20.5030 C.ar    1  UNL1        0.0000
     26 C           3.6340   -3.0260   19.6098 C.ar    1  UNL1        0.0012
     27 C           3.3829   -1.6516   20.1555 C.ar    1  UNL1        0.0152
     28 C           2.8516   -0.4010   19.5200 C.ar    1  UNL1        0.0804
     29 C           2.3392    0.1854   18.2379 C.ar    1  UNL1        0.1177
     30 N           1.9919    1.6225   18.4918 N.ar    1  UNL1       -0.2223
     31 C           2.2897    1.9242   19.9307 C.ar    1  UNL1        0.1788
     32 N           2.8210    0.6736   20.5661 N.ar    1  UNL1       -0.3069
@<TRIPOS>BOND
     1     1     2    2
     2     2     3   am
     3     3    11    1
     4    11    12   ar
     5    12    13   ar
     6    13    14   ar
     7    14    15   ar
     8    15    16   ar
     9     2     4   am
    10     4     5    1
    11     5     6    1
    12     6     7    1
    13     7    17    1
    14    17    18    1
    15    17    20    1
    16    20    21    1
    17    21    22    1
    18    22    23   ar
    19    23    24   ar
    20    24    25   ar
    21    25    26   ar
    22    26    27   ar
    23    27    28    1
    24    28    29   ar
    25    29    30   ar
    26    30    31   ar
    27    31    32   ar
    28     7     8    1
    29     8     9    1
    30    16    11   ar
    31     9     4    1
    32    32    21    1
    33    27    22   ar
    34    32    28   ar
    35     3    10    1
    36    18    19    1
@<TRIPOS>MOLECULE
*****
 32 36 0 0 0
SMALL
GASTEIGER

@<TRIPOS>ATOM
      1 O           8.5825   -3.6668   24.7514 O.2     1  UNL1       -0.2522
      2 C           7.1060   -3.7576   24.5026 C.2     1  UNL1        0.3077
      3 N           6.1575   -3.8880   25.6572 N.am    1  UNL1       -0.2681
      4 N           6.5783   -3.7180   23.0990 N.am    1  UNL1       -0.2640
      5 C           7.5269   -3.5876   21.9444 C.3     1  UNL1        0.0950
      6 C           6.9990   -3.5480   20.5409 C.3     1  UNL1        0.0240
      7 C           5.5226   -3.6388   20.2921 C.3     1  UNL1        0.0304
      8 C           4.5740   -3.7692   21.4467 C.3     1  UNL1        0.0240
      9 C           5.1018   -3.8088   22.8502 C.3     1  UNL1        0.0950
     10 H           5.1885   -3.9476   25.4939 H       1  UNL1        0.1564
     11 C           6.6854   -3.9276   27.0607 C.ar    1  UNL1        0.0516
     12 C           6.7339   -5.2277   27.8072 C.ar    1  UNL1        0.0147
     13 C           7.2618   -5.2674   29.2108 C.ar    1  UNL1        0.0013
     14 C           7.7411   -4.0069   29.8677 C.ar    1  UNL1        0.0001
     15 C           7.6925   -2.7067   29.1211 C.ar    1  UNL1        0.0013
     16 C           7.1646   -2.6671   27.7176 C.ar    1  UNL1        0.0147
     17 C           4.9947   -3.5992   18.8886 C.3     1  UNL1        0.1128
     18 O           4.0775   -4.6815   18.4015 O.3     1  UNL1       -0.3844
     19 H           3.8310   -4.5059   17.4799 H       1  UNL1        0.2103
     20 C           5.3841   -2.4772   17.9722 C.3     1  UNL1        0.0564
     21 C           4.8580   -1.0936   18.2149 C.3     1  UNL1        0.1119
     22 C           5.4654    0.1816   17.7101 C.ar    1  UNL1       -0.0002
     23 C           6.6829    0.4526   16.8769 C.ar    1  UNL1       -0.0024
     24 C           7.0499    1.8629   16.5218 C.ar    1  UNL1       -0.0003
     25 C           6.1995    3.0023   16.9999 C.ar    1  UNL1        0.0000
     26 C           4.9820    2.7314   17.8330 C.ar    1  UNL1        0.0012
     27 C           4.6149    1.3210   18.1882 C.ar    1  UNL1        0.0152
     28 C           3.4820    0.7499   18.9884 C.ar    1  UNL1        0.0804
     29 C           2.2562    1.1012   19.7785 C.ar    1  UNL1        0.1177
     30 N           1.6490   -0.1742   20.2832 N.ar    1  UNL1       -0.2223
     31 C           2.4994   -1.3136   19.8052 C.ar    1  UNL1        0.1788
     32 N           3.6323   -0.7425   19.0049 N.ar    1  UNL1       -0.3069
@<TRIPOS>BOND
     1     1     2    2
     2     2     3   am
     3     3    11    1
     4    11    12   ar
     5    12    13   ar
     6    13    14   ar
     7    14    15   ar
     8    15    16   ar
     9     2     4   am
    10     4     5    1
    11     5     6    1
    12     6     7    1
    13     7    17    1
    14    17    18    1
    15    17    20    1
    16    20    21    1
    17    21    22    1
    18    22    23   ar
    19    23    24   ar
    20    24    25   ar
    21    25    26   ar
    22    26    27   ar
    23    27    28    1
    24    28    29   ar
    25    29    30   ar
    26    30    31   ar
    27    31    32   ar
    28     7     8    1
    29     8     9    1
    30    16    11   ar
    31     9     4    1
    32    32    21    1
    33    27    22   ar
    34    32    28   ar
    35     3    10    1
    36    18    19    1
@<TRIPOS>MOLECULE
*****
 32 36 0 0 0
SMALL
GASTEIGER

@<TRIPOS>ATOM
      1 O           6.1894   -4.0606   25.0786 O.2     1  UNL1       -0.2522
      2 C           6.9442   -4.5538   23.8798 C.2     1  UNL1        0.3077
      3 N           7.9755   -5.6320   24.0343 N.am    1  UNL1       -0.2681
      4 N           6.6676   -3.9687   22.5265 N.am    1  UNL1       -0.2640
      5 C           5.6363   -2.8905   22.3722 C.3     1  UNL1        0.0950
      6 C           5.3597   -2.3055   21.0189 C.3     1  UNL1        0.0240
      7 C           6.1145   -2.7986   19.8201 C.3     1  UNL1        0.0304
      8 C           7.1458   -3.8768   19.9745 C.3     1  UNL1        0.0240
      9 C           7.4224   -4.4618   21.3278 C.3     1  UNL1        0.0950
     10 H           8.4709   -5.9557   23.2475 H       1  UNL1        0.1564
     11 C           8.2520   -6.2170   25.3875 C.ar    1  UNL1        0.0516
     12 C           9.0207   -5.4257   26.4038 C.ar    1  UNL1        0.0147
     13 C           9.2973   -6.0107   27.7571 C.ar    1  UNL1        0.0013
     14 C           8.8051   -7.3869   28.0940 C.ar    1  UNL1        0.0001
     15 C           8.0363   -8.1783   27.0777 C.ar    1  UNL1        0.0013
     16 C           7.7598   -7.5933   25.7244 C.ar    1  UNL1        0.0147
     17 C           5.8380   -2.2136   18.4669 C.3     1  UNL1        0.1128
     18 O           6.9562   -2.0392   17.4824 O.3     1  UNL1       -0.3844
     19 H           6.6090   -1.6511   16.6641 H       1  UNL1        0.2103
     20 C           4.4431   -1.8030   18.0981 C.3     1  UNL1        0.0564
     21 C           3.9785   -0.4019   18.3646 C.3     1  UNL1        0.1119
     22 C           2.7429   -0.0115   19.1201 C.ar    1  UNL1       -0.0002
     23 C           1.6758   -0.8264   19.7886 C.ar    1  UNL1       -0.0024
     24 C           0.5344   -0.1434   20.4820 C.ar    1  UNL1       -0.0003
     25 C           0.4602    1.3545   20.5068 C.ar    1  UNL1        0.0000
     26 C           1.5273    2.1695   19.8382 C.ar    1  UNL1        0.0012
     27 C           2.6687    1.4865   19.1449 C.ar    1  UNL1        0.0152
     28 C           3.8585    2.0218   18.4047 C.ar    1  UNL1        0.0804
     29 C           4.5479    3.2785   17.9626 C.ar    1  UNL1        0.1177
     30 N           5.7836    2.8880   17.2071 N.ar    1  UNL1       -0.2223
     31 C           5.8578    1.3901   17.1823 C.ar    1  UNL1        0.1788
     32 N           4.6680    0.8547   17.9225 N.ar    1  UNL1       -0.3069
@<TRIPOS>BOND
     1     1     2    2
     2     2     3   am
     3     3    11    1
     4    11    12   ar
     5    12    13   ar
     6    13    14   ar
     7    14    15   ar
     8    15    16   ar
     9     2     4   am
    10     4     5    1
    11     5     6    1
    12     6     7    1
    13     7    17    1
    14    17    18    1
    15    17    20    1
    16    20    21    1
    17    21    22    1
    18    22    23   ar
    19    23    24   ar
    20    24    25   ar
    21    25    26   ar
    22    26    27   ar
    23    27    28    1
    24    28    29   ar
    25    29    30   ar
    26    30    31   ar
    27    31    32   ar
    28     7     8    1
    29     8     9    1
    30    16    11   ar
    31     9     4    1
    32    32    21    1
    33    27    22   ar
    34    32    28   ar
    35     3    10    1
    36    18    19    1
@<TRIPOS>MOLECULE
*****
 32 36 0 0 0
SMALL
GASTEIGER

@<TRIPOS>ATOM
      1 O           3.2150   -1.1097   22.5877 O.2     1  UNL1       -0.2522
      2 C           2.3965   -0.3038   21.6230 C.2     1  UNL1        0.3077
      3 N           2.5701   -0.4996   20.1460 N.am    1  UNL1       -0.2681
      4 N           1.4045    0.6979   22.1355 N.am    1  UNL1       -0.2640
      5 C           1.2310    0.8936   23.6124 C.3     1  UNL1        0.0950
      6 C           0.2389    1.8952   24.1248 C.3     1  UNL1        0.0240
      7 C          -0.5796    2.7011   23.1601 C.3     1  UNL1        0.0304
      8 C          -0.4061    2.5054   21.6831 C.3     1  UNL1        0.0240
      9 C           0.5860    1.5038   21.1708 C.3     1  UNL1        0.0950
     10 H           2.0329    0.0293   19.5129 H       1  UNL1        0.1564
     11 C           3.5622   -1.5013   19.6337 C.ar    1  UNL1        0.0516
     12 C           4.9458   -1.0612   19.2569 C.ar    1  UNL1        0.0147
     13 C           5.9379   -2.0628   18.7446 C.ar    1  UNL1        0.0013
     14 C           5.5463   -3.5045   18.6091 C.ar    1  UNL1        0.0001
     15 C           4.1627   -3.9446   18.9859 C.ar    1  UNL1        0.0013
     16 C           3.1706   -2.9429   19.4982 C.ar    1  UNL1        0.0147
     17 C          -1.5716    3.7028   23.6724 C.3     1  UNL1        0.1128
     18 O          -1.9454    3.7127   25.1251 O.3     1  UNL1       -0.3844
     19 H          -2.5928    4.4166   25.2875 H       1  UNL1        0.2103
     20 C          -2.1899    4.6946   22.7321 C.3     1  UNL1        0.0564
     21 C          -3.5939    4.4915   22.2447 C.3     1  UNL1        0.1119
     22 C          -4.0051    4.2249   20.8270 C.ar    1  UNL1       -0.0002
     23 C          -3.2127    4.0892   19.5607 C.ar    1  UNL1       -0.0024
     24 C          -3.9136    3.8165   18.2629 C.ar    1  UNL1       -0.0003
     25 C          -5.4070    3.6796   18.2314 C.ar    1  UNL1        0.0000
     26 C          -6.1995    3.8154   19.4977 C.ar    1  UNL1        0.0012
     27 C          -5.4986    4.0881   20.7955 C.ar    1  UNL1        0.0152
     28 C          -6.0103    4.2700   22.1937 C.ar    1  UNL1        0.0804
     29 C          -7.2496    4.2979   23.0384 C.ar    1  UNL1        0.1177
     30 N          -6.8383    4.5645   24.4561 N.ar    1  UNL1       -0.2223
     31 C          -5.3449    4.7013   24.4876 C.ar    1  UNL1        0.1788
     32 N          -4.8332    4.5194   23.0894 N.ar    1  UNL1       -0.3069
@<TRIPOS>BOND
     1     1     2    2
     2     2     3   am
     3     3    11    1
     4    11    12   ar
     5    12    13   ar
     6    13    14   ar
     7    14    15   ar
     8    15    16   ar
     9     2     4   am
    10     4     5    1
    11     5     6    1
    12     6     7    1
    13     7    17    1
    14    17    18    1
    15    17    20    1
    16    20    21    1
    17    21    22    1
    18    22    23   ar
    19    23    24   ar
    20    24    25   ar
    21    25    26   ar
    22    26    27   ar
    23    27    28    1
    24    28    29   ar
    25    29    30   ar
    26    30    31   ar
    27    31    32   ar
    28     7     8    1
    29     8     9    1
    30    16    11   ar
    31     9     4    1
    32    32    21    1
    33    27    22   ar
    34    32    28   ar
    35     3    10    1
    36    18    19    1
@<TRIPOS>MOLECULE
*****
 32 36 0 0 0
SMALL
GASTEIGER

@<TRIPOS>ATOM
      1 O           2.8804    0.5250   23.2852 O.2     1  UNL1       -0.2522
      2 C           1.5202    1.0018   23.7007 C.2     1  UNL1        0.3077
      3 N           0.5048    1.3710   22.6602 N.am    1  UNL1       -0.2681
      4 N           1.1755    1.1091   25.1566 N.am    1  UNL1       -0.2640
      5 C           2.1909    0.7398   26.1970 C.3     1  UNL1        0.0950
      6 C           1.8461    0.8472   27.6529 C.3     1  UNL1        0.0240
      7 C           0.4860    1.3239   28.0683 C.3     1  UNL1        0.0304
      8 C          -0.5295    1.6933   27.0279 C.3     1  UNL1        0.0240
      9 C          -0.1847    1.5858   25.5720 C.3     1  UNL1        0.0950
     10 H          -0.3880    1.6839   22.9329 H       1  UNL1        0.1564
     11 C           0.8496    1.2636   21.2043 C.ar    1  UNL1        0.0516
     12 C           1.1068    2.5040   20.4011 C.ar    1  UNL1        0.0147
     13 C           1.4516    2.3967   18.9452 C.ar    1  UNL1        0.0013
     14 C           1.5391    1.0489   18.2926 C.ar    1  UNL1        0.0001
     15 C           1.2819   -0.1915   19.0959 C.ar    1  UNL1        0.0013
     16 C           0.9371   -0.0841   20.5518 C.ar    1  UNL1        0.0147
     17 C           0.1412    1.4314   29.5242 C.3     1  UNL1        0.1128
     18 O          -0.8777    0.5081   30.1237 O.3     1  UNL1       -0.3844
     19 H          -0.9814    0.7097   31.0669 H       1  UNL1        0.2103
     20 C           0.8153    2.4621   30.3805 C.3     1  UNL1        0.0564
     21 C           1.5831    2.0399   31.5981 C.3     1  UNL1        0.1119
     22 C           1.6638    2.7912   32.8939 C.ar    1  UNL1       -0.0002
     23 C           1.0562    4.0872   33.3421 C.ar    1  UNL1       -0.0024
     24 C           1.3203    4.6000   34.7268 C.ar    1  UNL1       -0.0003
     25 C           2.1920    3.8168   35.6631 C.ar    1  UNL1        0.0000
     26 C           2.7996    2.5207   35.2148 C.ar    1  UNL1        0.0012
     27 C           2.5355    2.0079   33.8302 C.ar    1  UNL1        0.0152
     28 C           2.9934    0.7726   33.1130 C.ar    1  UNL1        0.0804
     29 C           3.8153   -0.4750   33.2485 C.ar    1  UNL1        0.1177
     30 N           3.7345   -1.2262   31.9527 N.ar    1  UNL1       -0.2223
     31 C           2.8628   -0.4430   31.0164 C.ar    1  UNL1        0.1788
     32 N           2.4048    0.7924   31.7335 N.ar    1  UNL1       -0.3069
@<TRIPOS>BOND
     1     1     2    2
     2     2     3   am
     3     3    11    1
     4    11    12   ar
     5    12    13   ar
     6    13    14   ar
     7    14    15   ar
     8    15    16   ar
     9     2     4   am
    10     4     5    1
    11     5     6    1
    12     6     7    1
    13     7    17    1
    14    17    18    1
    15    17    20    1
    16    20    21    1
    17    21    22    1
    18    22    23   ar
    19    23    24   ar
    20    24    25   ar
    21    25    26   ar
    22    26    27   ar
    23    27    28    1
    24    28    29   ar
    25    29    30   ar
    26    30    31   ar
    27    31    32   ar
    28     7     8    1
    29     8     9    1
    30    16    11   ar
    31     9     4    1
    32    32    21    1
    33    27    22   ar
    34    32    28   ar
    35     3    10    1
    36    18    19    1
