@<TRIPOS>MOLECULE
*****
 25 27 0 0 0
SMALL
GASTEIGER

@<TRIPOS>ATOM
      1 N          -7.9737  -20.3382   22.3581 N.pl3   1  UNL1       -0.2150
      2 H          -8.0718  -21.2483   22.7205 H       1  UNL1        0.1737
      3 C          -6.6171  -19.8259   21.9742 C.ar    1  UNL1        0.0648
      4 C          -5.8490  -20.4909   20.8707 C.ar    1  UNL1        0.0160
      5 C          -4.4925  -19.9786   20.4869 C.ar    1  UNL1        0.0044
      6 C          -3.9041  -18.8013   21.2065 C.ar    1  UNL1        0.0359
      7 C          -4.6722  -18.1364   22.3100 C.ar    1  UNL1        0.0044
      8 C          -6.0287  -18.6486   22.6939 C.ar    1  UNL1        0.0160
      9 C          -2.5475  -18.2890   20.8226 C.ar    1  UNL1        0.1623
     10 N          -1.4939  -19.2427   20.3426 N.ar    1  UNL1       -0.2250
     11 C          -0.1373  -18.7304   19.9587 C.ar    1  UNL1        0.1022
     12 C           0.1656  -17.2645   20.0548 C.ar    1  UNL1        0.0414
     13 C          -0.8881  -16.3108   20.5349 C.ar    1  UNL1        0.1022
     14 N          -2.2446  -16.8231   20.9187 N.ar    1  UNL1       -0.2250
     15 O          -9.4334  -19.5283   23.6670 O.2     1  UNL1       -0.1499
     16 S          -9.1808  -19.4638   22.1899 S.O2    1  UNL1        0.0736
     17 O          -8.9282  -19.3994   20.7127 O.2     1  UNL1       -0.1499
     18 C         -10.3880  -18.5894   22.0215 C.ar    1  UNL1        0.1268
     19 C         -10.4780  -17.6519   20.8540 C.ar    1  UNL1        0.0316
     20 C         -11.6851  -16.7776   20.6857 C.ar    1  UNL1        0.0599
     21 CL        -11.7752  -15.8401   19.5182 Cl      1  UNL1       -0.0822
     22 C         -12.8021  -16.8407   21.6848 C.ar    1  UNL1        0.0229
     23 C         -12.7121  -17.7782   22.8522 C.ar    1  UNL1        0.0599
     24 CL        -13.8292  -17.8413   23.8514 Cl      1  UNL1       -0.0822
     25 C         -11.5050  -18.6525   23.0206 C.ar    1  UNL1        0.0316
@<TRIPOS>BOND
     1    15    16    2
     2    16    17    2
     3    16     1    1
     4     1     3    1
     5     3     4   ar
     6     4     5   ar
     7     5     6   ar
     8     6     9    1
     9     9    10   ar
    10    10    11   ar
    11    11    12   ar
    12    12    13   ar
    13    13    14   ar
    14     6     7   ar
    15     7     8   ar
    16    16    18    1
    17    18    19   ar
    18    19    20   ar
    19    20    21    1
    20    20    22   ar
    21    22    23   ar
    22    23    24    1
    23    23    25   ar
    24     8     3   ar
    25    25    18   ar
    26    14     9   ar
    27     1     2    1
@<TRIPOS>MOLECULE
*****
 25 27 0 0 0
SMALL
GASTEIGER

@<TRIPOS>ATOM
      1 N          -7.9859  -20.3487   22.3483 N.pl3   1  UNL1       -0.2150
      2 H          -8.0859  -21.2593   22.7089 H       1  UNL1        0.1737
      3 C          -6.6282  -19.8387   21.9650 C.ar    1  UNL1        0.0648
      4 C          -6.0474  -18.6490   22.6701 C.ar    1  UNL1        0.0160
      5 C          -4.6898  -18.1391   22.2869 C.ar    1  UNL1        0.0044
      6 C          -3.9131  -18.8189   21.1985 C.ar    1  UNL1        0.0359
      7 C          -4.4939  -20.0086   20.4934 C.ar    1  UNL1        0.0044
      8 C          -5.8515  -20.5185   20.8766 C.ar    1  UNL1        0.0160
      9 C          -2.5555  -18.3089   20.8152 C.ar    1  UNL1        0.1623
     10 N          -1.4886  -19.2695   20.3806 N.ar    1  UNL1       -0.2250
     11 C          -0.1310  -18.7596   19.9974 C.ar    1  UNL1        0.1022
     12 C           0.1597  -17.2889   20.0487 C.ar    1  UNL1        0.0414
     13 C          -0.9072  -16.3282   20.4833 C.ar    1  UNL1        0.1022
     14 N          -2.2648  -16.8382   20.8666 N.ar    1  UNL1       -0.2250
     15 O          -9.4077  -19.4879   23.6662 O.2     1  UNL1       -0.1499
     16 S          -9.1910  -19.4713   22.1821 S.O2    1  UNL1        0.0736
     17 O          -8.9743  -19.4548   20.6980 O.2     1  UNL1       -0.1499
     18 C         -10.3963  -18.5939   22.0158 C.ar    1  UNL1        0.1268
     19 C         -11.5137  -18.6573   23.0145 C.ar    1  UNL1        0.0316
     20 C         -12.7189  -17.7800   22.8483 C.ar    1  UNL1        0.0599
     21 CL        -13.8363  -17.8434   23.8470 Cl      1  UNL1       -0.0822
     22 C         -12.8066  -16.8391   21.6835 C.ar    1  UNL1        0.0229
     23 C         -11.6892  -16.7756   20.6848 C.ar    1  UNL1        0.0599
     24 CL        -11.7771  -15.8347   19.5198 Cl      1  UNL1       -0.0822
     25 C         -10.4841  -17.6530   20.8510 C.ar    1  UNL1        0.0316
@<TRIPOS>BOND
     1    15    16    2
     2    16    17    2
     3    16     1    1
     4     1     3    1
     5     3     4   ar
     6     4     5   ar
     7     5     6   ar
     8     6     9    1
     9     9    10   ar
    10    10    11   ar
    11    11    12   ar
    12    12    13   ar
    13    13    14   ar
    14     6     7   ar
    15     7     8   ar
    16    16    18    1
    17    18    19   ar
    18    19    20   ar
    19    20    21    1
    20    20    22   ar
    21    22    23   ar
    22    23    24    1
    23    23    25   ar
    24     8     3   ar
    25    25    18   ar
    26    14     9   ar
    27     1     2    1
@<TRIPOS>MOLECULE
*****
 25 27 0 0 0
SMALL
GASTEIGER

@<TRIPOS>ATOM
      1 N          -7.6530  -16.6399   24.4290 N.pl3   1  UNL1       -0.2150
      2 H          -7.6288  -16.4271   25.3900 H       1  UNL1        0.1737
      3 C          -6.3748  -16.8805   23.6817 C.ar    1  UNL1        0.0648
      4 C          -6.2500  -18.0661   22.7714 C.ar    1  UNL1        0.0160
      5 C          -4.9718  -18.3066   22.0241 C.ar    1  UNL1        0.0044
      6 C          -3.8184  -17.3616   22.1873 C.ar    1  UNL1        0.0359
      7 C          -3.9432  -16.1760   23.0977 C.ar    1  UNL1        0.0044
      8 C          -5.2214  -15.9355   23.8449 C.ar    1  UNL1        0.0160
      9 C          -2.5402  -17.6022   21.4400 C.ar    1  UNL1        0.1623
     10 N          -1.6225  -16.4556   21.1351 N.ar    1  UNL1       -0.2250
     11 C          -0.3443  -16.6962   20.3878 C.ar    1  UNL1        0.1022
     12 C           0.0161  -18.0834   19.9455 C.ar    1  UNL1        0.0414
     13 C          -0.9017  -19.2301   20.2504 C.ar    1  UNL1        0.1022
     14 N          -2.1799  -18.9894   20.9976 N.ar    1  UNL1       -0.2250
     15 O          -9.4023  -17.8216   24.6371 O.2     1  UNL1       -0.1499
     16 S          -8.9679  -16.7235   23.7122 S.O2    1  UNL1        0.0736
     17 O          -8.5336  -15.6254   22.7874 O.2     1  UNL1       -0.1499
     18 C         -10.2830  -16.8070   22.9954 C.ar    1  UNL1        0.1268
     19 C         -10.4115  -16.2728   21.5996 C.ar    1  UNL1        0.0316
     20 C         -11.7265  -16.3563   20.8828 C.ar    1  UNL1        0.0599
     21 CL        -11.8550  -15.8220   19.4871 Cl      1  UNL1       -0.0822
     22 C         -12.9128  -16.9741   21.5616 C.ar    1  UNL1        0.0229
     23 C         -12.7842  -17.5083   22.9573 C.ar    1  UNL1        0.0599
     24 CL        -13.9707  -18.1262   23.6362 Cl      1  UNL1       -0.0822
     25 C         -11.4693  -17.4248   23.6742 C.ar    1  UNL1        0.0316
@<TRIPOS>BOND
     1    15    16    2
     2    16    17    2
     3    16     1    1
     4     1     3    1
     5     3     4   ar
     6     4     5   ar
     7     5     6   ar
     8     6     9    1
     9     9    10   ar
    10    10    11   ar
    11    11    12   ar
    12    12    13   ar
    13    13    14   ar
    14     6     7   ar
    15     7     8   ar
    16    16    18    1
    17    18    19   ar
    18    19    20   ar
    19    20    21    1
    20    20    22   ar
    21    22    23   ar
    22    23    24    1
    23    23    25   ar
    24     8     3   ar
    25    25    18   ar
    26    14     9   ar
    27     1     2    1
@<TRIPOS>MOLECULE
*****
 25 27 0 0 0
SMALL
GASTEIGER

@<TRIPOS>ATOM
      1 N          -7.6481  -16.6459   24.4286 N.pl3   1  UNL1       -0.2150
      2 H          -7.6239  -16.4348   25.3899 H       1  UNL1        0.1737
      3 C          -6.3699  -16.8866   23.6812 C.ar    1  UNL1        0.0648
      4 C          -6.2465  -18.0702   22.7682 C.ar    1  UNL1        0.0160
      5 C          -4.9684  -18.3109   22.0209 C.ar    1  UNL1        0.0044
      6 C          -3.8137  -17.3679   22.1866 C.ar    1  UNL1        0.0359
      7 C          -3.9371  -16.1843   23.0997 C.ar    1  UNL1        0.0044
      8 C          -5.2152  -15.9436   23.8470 C.ar    1  UNL1        0.0160
      9 C          -2.5356  -17.6086   21.4393 C.ar    1  UNL1        0.1623
     10 N          -2.1742  -18.9962   20.9989 N.ar    1  UNL1       -0.2250
     11 C          -0.8960  -19.2369   20.2515 C.ar    1  UNL1        0.1022
     12 C           0.0207  -18.0899   19.9446 C.ar    1  UNL1        0.0414
     13 C          -0.3408  -16.7023   20.3850 C.ar    1  UNL1        0.1022
     14 N          -1.6189  -16.4617   21.1323 N.ar    1  UNL1       -0.2250
     15 O          -9.3928  -17.8363   24.6245 O.2     1  UNL1       -0.1499
     16 S          -8.9629  -16.7268   23.7113 S.O2    1  UNL1        0.0736
     17 O          -8.5330  -15.6173   22.7981 O.2     1  UNL1       -0.1499
     18 C         -10.2778  -16.8077   22.9940 C.ar    1  UNL1        0.1268
     19 C         -11.4659  -17.4224   23.6727 C.ar    1  UNL1        0.0316
     20 C         -12.7807  -17.5033   22.9554 C.ar    1  UNL1        0.0599
     21 CL        -13.9688  -18.1181   23.6341 Cl      1  UNL1       -0.0822
     22 C         -12.9076  -16.9695   21.5594 C.ar    1  UNL1        0.0229
     23 C         -11.7195  -16.3547   20.8807 C.ar    1  UNL1        0.0599
     24 CL        -11.8464  -15.8208   19.4846 Cl      1  UNL1       -0.0822
     25 C         -10.4047  -16.2738   21.5980 C.ar    1  UNL1        0.0316
@<TRIPOS>BOND
     1    15    16    2
     2    16    17    2
     3    16     1    1
     4     1     3    1
     5     3     4   ar
     6     4     5   ar
     7     5     6   ar
     8     6     9    1
     9     9    10   ar
    10    10    11   ar
    11    11    12   ar
    12    12    13   ar
    13    13    14   ar
    14     6     7   ar
    15     7     8   ar
    16    16    18    1
    17    18    19   ar
    18    19    20   ar
    19    20    21    1
    20    20    22   ar
    21    22    23   ar
    22    23    24    1
    23    23    25   ar
    24     8     3   ar
    25    25    18   ar
    26    14     9   ar
    27     1     2    1
@<TRIPOS>MOLECULE
*****
 25 27 0 0 0
SMALL
GASTEIGER

@<TRIPOS>ATOM
      1 N         -13.3690   -5.2308   20.1288 N.pl3   1  UNL1       -0.2150
      2 H         -13.1712   -5.2838   21.0918 H       1  UNL1        0.1737
      3 C         -14.4976   -6.0315   19.5498 C.ar    1  UNL1        0.0648
      4 C         -15.9135   -5.5689   19.7266 C.ar    1  UNL1        0.0160
      5 C         -17.0420   -6.3696   19.1476 C.ar    1  UNL1        0.0044
      6 C         -16.7546   -7.6330   18.3918 C.ar    1  UNL1        0.0359
      7 C         -15.3388   -8.0957   18.2150 C.ar    1  UNL1        0.0044
      8 C         -14.2103   -7.2949   18.7940 C.ar    1  UNL1        0.0160
      9 C         -17.8832   -8.4337   17.8128 C.ar    1  UNL1        0.1623
     10 N         -18.0348   -9.8828   18.1691 N.ar    1  UNL1       -0.2250
     11 C         -19.1634  -10.6835   17.5901 C.ar    1  UNL1        0.1022
     12 C         -20.1404  -10.0351   16.6548 C.ar    1  UNL1        0.0414
     13 C         -19.9888   -8.5858   16.2985 C.ar    1  UNL1        0.1022
     14 N         -18.8603   -7.7852   16.8775 N.ar    1  UNL1       -0.2250
     15 O         -11.5286   -5.4459   19.0962 O.2     1  UNL1       -0.1499
     16 S         -12.5419   -4.3494   19.2406 S.O2    1  UNL1        0.0736
     17 O         -13.5552   -3.2529   19.3851 O.2     1  UNL1       -0.1499
     18 C         -11.7147   -3.4679   18.3524 C.ar    1  UNL1        0.1268
     19 C         -10.5411   -4.0383   17.6126 C.ar    1  UNL1        0.0316
     20 C          -9.7140   -3.1569   16.7245 C.ar    1  UNL1        0.0599
     21 CL         -8.5404   -3.7274   15.9846 Cl      1  UNL1       -0.0822
     22 C         -10.0604   -1.7051   16.5761 C.ar    1  UNL1        0.0229
     23 C         -11.2340   -1.1346   17.3159 C.ar    1  UNL1        0.0599
     24 CL        -11.5805    0.3173   17.1675 Cl      1  UNL1       -0.0822
     25 C         -12.0612   -2.0160   18.2041 C.ar    1  UNL1        0.0316
@<TRIPOS>BOND
     1    15    16    2
     2    16    17    2
     3    16     1    1
     4     1     3    1
     5     3     4   ar
     6     4     5   ar
     7     5     6   ar
     8     6     9    1
     9     9    10   ar
    10    10    11   ar
    11    11    12   ar
    12    12    13   ar
    13    13    14   ar
    14     6     7   ar
    15     7     8   ar
    16    16    18    1
    17    18    19   ar
    18    19    20   ar
    19    20    21    1
    20    20    22   ar
    21    22    23   ar
    22    23    24    1
    23    23    25   ar
    24     8     3   ar
    25    25    18   ar
    26    14     9   ar
    27     1     2    1
@<TRIPOS>MOLECULE
*****
 25 27 0 0 0
SMALL
GASTEIGER

@<TRIPOS>ATOM
      1 N          -0.5777    3.1158   19.8598 N.pl3   1  UNL1       -0.2150
      2 H          -0.7557    3.7516   19.1295 H       1  UNL1        0.1737
      3 C           0.4024    1.9981   19.6588 C.ar    1  UNL1        0.0648
      4 C           1.6059    2.2036   18.7875 C.ar    1  UNL1        0.0160
      5 C           2.5860    1.0860   18.5866 C.ar    1  UNL1        0.0044
      6 C           2.3625   -0.2371   19.2570 C.ar    1  UNL1        0.0359
      7 C           1.1590   -0.4426   20.1283 C.ar    1  UNL1        0.0044
      8 C           0.1789    0.6750   20.3292 C.ar    1  UNL1        0.0160
      9 C           3.3426   -1.3547   19.0560 C.ar    1  UNL1        0.1623
     10 N           4.5465   -1.1491   18.1852 N.ar    1  UNL1       -0.2250
     11 C           5.5266   -2.2667   17.9843 C.ar    1  UNL1        0.1022
     12 C           5.3028   -3.5900   18.6542 C.ar    1  UNL1        0.0414
     13 C           4.0988   -3.7957   19.5251 C.ar    1  UNL1        0.1022
     14 N           3.1188   -2.6780   19.7260 N.ar    1  UNL1       -0.2250
     15 O          -2.5543    2.7660   20.5456 O.2     1  UNL1       -0.1499
     16 S          -1.2865    3.2646   21.1733 S.O2    1  UNL1        0.0736
     17 O          -0.0187    3.7633   21.8009 O.2     1  UNL1       -0.1499
     18 C          -1.9953    3.4135   22.4869 C.ar    1  UNL1        0.1268
     19 C          -3.4809    3.6190   22.5184 C.ar    1  UNL1        0.0316
     20 C          -4.1897    3.7678   23.8320 C.ar    1  UNL1        0.0599
     21 CL         -5.6752    3.9733   23.8635 Cl      1  UNL1       -0.0822
     22 C          -3.4130    3.7112   25.1139 C.ar    1  UNL1        0.0229
     23 C          -1.9274    3.5058   25.0824 C.ar    1  UNL1        0.0599
     24 CL         -1.1507    3.4492   26.3644 Cl      1  UNL1       -0.0822
     25 C          -1.2186    3.3569   23.7688 C.ar    1  UNL1        0.0316
@<TRIPOS>BOND
     1    15    16    2
     2    16    17    2
     3    16     1    1
     4     1     3    1
     5     3     4   ar
     6     4     5   ar
     7     5     6   ar
     8     6     9    1
     9     9    10   ar
    10    10    11   ar
    11    11    12   ar
    12    12    13   ar
    13    13    14   ar
    14     6     7   ar
    15     7     8   ar
    16    16    18    1
    17    18    19   ar
    18    19    20   ar
    19    20    21    1
    20    20    22   ar
    21    22    23   ar
    22    23    24    1
    23    23    25   ar
    24     8     3   ar
    25    25    18   ar
    26    14     9   ar
    27     1     2    1
@<TRIPOS>MOLECULE
*****
 25 27 0 0 0
SMALL
GASTEIGER

@<TRIPOS>ATOM
      1 N          -0.6108    3.2129   19.8864 N.pl3   1  UNL1       -0.2150
      2 H          -0.7435    3.8881   19.1823 H       1  UNL1        0.1737
      3 C           0.3575    2.0873   19.6732 C.ar    1  UNL1        0.0648
      4 C           1.5152    2.2613   18.7355 C.ar    1  UNL1        0.0160
      5 C           2.4834    1.1357   18.5223 C.ar    1  UNL1        0.0044
      6 C           2.2939   -0.1640   19.2469 C.ar    1  UNL1        0.0359
      7 C           1.1362   -0.3380   20.1846 C.ar    1  UNL1        0.0044
      8 C           0.1680    0.7876   20.3978 C.ar    1  UNL1        0.0160
      9 C           3.2622   -1.2896   19.0337 C.ar    1  UNL1        0.1623
     10 N           3.0544   -2.6003   19.7329 N.ar    1  UNL1       -0.2250
     11 C           4.0227   -3.7259   19.5197 C.ar    1  UNL1        0.1022
     12 C           5.1988   -3.5409   18.6072 C.ar    1  UNL1        0.0414
     13 C           5.4066   -2.2301   17.9080 C.ar    1  UNL1        0.1022
     14 N           4.4383   -1.1046   18.1212 N.ar    1  UNL1       -0.2250
     15 O          -2.6015    2.7863   20.4822 O.2     1  UNL1       -0.1499
     16 S          -1.3769    3.3098   21.1724 S.O2    1  UNL1        0.0736
     17 O          -0.1523    3.8332   21.8625 O.2     1  UNL1       -0.1499
     18 C          -2.1430    3.4067   22.4584 C.ar    1  UNL1        0.1268
     19 C          -1.4269    3.2744   23.7697 C.ar    1  UNL1        0.0316
     20 C          -2.1929    3.3713   25.0557 C.ar    1  UNL1        0.0599
     21 CL         -1.4768    3.2391   26.3671 Cl      1  UNL1       -0.0822
     22 C          -3.6751    3.6004   25.0303 C.ar    1  UNL1        0.0229
     23 C          -4.3912    3.7326   23.7190 C.ar    1  UNL1        0.0599
     24 CL         -5.8734    3.9617   23.6936 Cl      1  UNL1       -0.0822
     25 C          -3.6252    3.6358   22.4330 C.ar    1  UNL1        0.0316
@<TRIPOS>BOND
     1    15    16    2
     2    16    17    2
     3    16     1    1
     4     1     3    1
     5     3     4   ar
     6     4     5   ar
     7     5     6   ar
     8     6     9    1
     9     9    10   ar
    10    10    11   ar
    11    11    12   ar
    12    12    13   ar
    13    13    14   ar
    14     6     7   ar
    15     7     8   ar
    16    16    18    1
    17    18    19   ar
    18    19    20   ar
    19    20    21    1
    20    20    22   ar
    21    22    23   ar
    22    23    24    1
    23    23    25   ar
    24     8     3   ar
    25    25    18   ar
    26    14     9   ar
    27     1     2    1
@<TRIPOS>MOLECULE
*****
 25 27 0 0 0
SMALL
GASTEIGER

@<TRIPOS>ATOM
      1 N         -15.2028   -5.0213   19.4448 N.pl3   1  UNL1       -0.2150
      2 H         -15.7354   -5.8359   19.5932 H       1  UNL1        0.1737
      3 C         -15.8254   -3.6713   19.6453 C.ar    1  UNL1        0.0648
      4 C         -17.3180   -3.5352   19.7053 C.ar    1  UNL1        0.0160
      5 C         -17.9405   -2.1853   19.9058 C.ar    1  UNL1        0.0044
      6 C         -17.0704   -0.9716   20.0463 C.ar    1  UNL1        0.0359
      7 C         -15.5778   -1.1077   19.9864 C.ar    1  UNL1        0.0044
      8 C         -14.9553   -2.4576   19.7858 C.ar    1  UNL1        0.0160
      9 C         -17.6930    0.3784   20.2469 C.ar    1  UNL1        0.1623
     10 N         -18.8545    0.5371   21.1826 N.ar    1  UNL1       -0.2250
     11 C         -19.4770    1.8870   21.3832 C.ar    1  UNL1        0.1022
     12 C         -18.9381    3.0782   20.6479 C.ar    1  UNL1        0.0414
     13 C         -17.7765    2.9194   19.7121 C.ar    1  UNL1        0.1022
     14 N         -17.1540    1.5695   19.5116 N.ar    1  UNL1       -0.2250
     15 O         -13.3738   -5.4539   20.4283 O.2     1  UNL1       -0.1499
     16 S         -13.7690   -5.1300   19.0180 S.O2    1  UNL1        0.0736
     17 O         -14.1641   -4.8062   17.6078 O.2     1  UNL1       -0.1499
     18 C         -12.3350   -5.2387   18.5913 C.ar    1  UNL1        0.1268
     19 C         -11.5425   -6.4663   18.9306 C.ar    1  UNL1        0.0316
     20 C         -10.1087   -6.5750   18.5038 C.ar    1  UNL1        0.0599
     21 CL         -9.3162   -7.8025   18.8431 Cl      1  UNL1       -0.0822
     22 C          -9.4673   -5.4562   17.7377 C.ar    1  UNL1        0.0229
     23 C         -10.2598   -4.2287   17.3984 C.ar    1  UNL1        0.0599
     24 CL         -9.6183   -3.1099   16.6323 Cl      1  UNL1       -0.0822
     25 C         -11.6936   -4.1199   17.8252 C.ar    1  UNL1        0.0316
@<TRIPOS>BOND
     1    15    16    2
     2    16    17    2
     3    16     1    1
     4     1     3    1
     5     3     4   ar
     6     4     5   ar
     7     5     6   ar
     8     6     9    1
     9     9    10   ar
    10    10    11   ar
    11    11    12   ar
    12    12    13   ar
    13    13    14   ar
    14     6     7   ar
    15     7     8   ar
    16    16    18    1
    17    18    19   ar
    18    19    20   ar
    19    20    21    1
    20    20    22   ar
    21    22    23   ar
    22    23    24    1
    23    23    25   ar
    24     8     3   ar
    25    25    18   ar
    26    14     9   ar
    27     1     2    1
@<TRIPOS>MOLECULE
*****
 25 27 0 0 0
SMALL
GASTEIGER

@<TRIPOS>ATOM
      1 N         -13.1106   -5.4630   19.6922 N.pl3   1  UNL1       -0.2150
      2 H         -12.3597   -5.8706   20.1813 H       1  UNL1        0.1737
      3 C         -14.3361   -6.2731   19.3890 C.ar    1  UNL1        0.0648
      4 C         -15.6959   -5.7212   19.6996 C.ar    1  UNL1        0.0160
      5 C         -16.9213   -6.5313   19.3963 C.ar    1  UNL1        0.0044
      6 C         -16.7870   -7.8933   18.7824 C.ar    1  UNL1        0.0359
      7 C         -15.4273   -8.4452   18.4717 C.ar    1  UNL1        0.0044
      8 C         -14.2019   -7.6351   18.7750 C.ar    1  UNL1        0.0160
      9 C         -18.0125   -8.7034   18.4791 C.ar    1  UNL1        0.1623
     10 N         -18.1520   -9.3833   17.1494 N.ar    1  UNL1       -0.2250
     11 C         -19.3775  -10.1934   16.8461 C.ar    1  UNL1        0.1022
     12 C         -20.4635  -10.3236   17.8726 C.ar    1  UNL1        0.0414
     13 C         -20.3239   -9.6437   19.2024 C.ar    1  UNL1        0.1022
     14 N         -19.0984   -8.8336   19.5057 N.ar    1  UNL1       -0.2250
     15 O         -12.7147   -4.4809   17.8542 O.2     1  UNL1       -0.1499
     16 S         -13.0293   -4.0319   19.2504 S.O2    1  UNL1        0.0736
     17 O         -13.3439   -3.5829   20.6465 O.2     1  UNL1       -0.1499
     18 C         -12.9479   -2.6007   18.8085 C.ar    1  UNL1        0.1268
     19 C         -14.1173   -1.6843   19.0154 C.ar    1  UNL1        0.0316
     20 C         -14.0360   -0.2532   18.5736 C.ar    1  UNL1        0.0599
     21 CL        -15.2054    0.6632   18.7805 Cl      1  UNL1       -0.0822
     22 C         -12.7854    0.2615   17.9249 C.ar    1  UNL1        0.0229
     23 C         -11.6160   -0.6549   17.7179 C.ar    1  UNL1        0.0599
     24 CL        -10.3653   -0.1401   17.0692 Cl      1  UNL1       -0.0822
     25 C         -11.6973   -2.0860   18.1598 C.ar    1  UNL1        0.0316
@<TRIPOS>BOND
     1    15    16    2
     2    16    17    2
     3    16     1    1
     4     1     3    1
     5     3     4   ar
     6     4     5   ar
     7     5     6   ar
     8     6     9    1
     9     9    10   ar
    10    10    11   ar
    11    11    12   ar
    12    12    13   ar
    13    13    14   ar
    14     6     7   ar
    15     7     8   ar
    16    16    18    1
    17    18    19   ar
    18    19    20   ar
    19    20    21    1
    20    20    22   ar
    21    22    23   ar
    22    23    24    1
    23    23    25   ar
    24     8     3   ar
    25    25    18   ar
    26    14     9   ar
    27     1     2    1
