@<TRIPOS>MOLECULE
*****
 24 26 0 0 0
SMALL
GASTEIGER

@<TRIPOS>ATOM
      1 C          -7.8733  -18.3941   21.5297 C.3     1  UNL1        0.1471
      2 O          -6.5183  -17.8053   21.7890 O.3     1  UNL1       -0.3812
      3 C          -9.0650  -19.2329   21.1745 C.3     1  UNL1        0.0584
      4 C         -10.2993  -18.4325   21.4677 C.ar    1  UNL1       -0.0202
      5 C         -11.7583  -18.7457   21.3156 C.ar    1  UNL1       -0.0044
      6 C         -12.7884  -17.7253   21.6999 C.ar    1  UNL1       -0.0003
      7 C         -12.3594  -16.3918   22.2364 C.ar    1  UNL1       -0.0002
      8 C         -10.9004  -16.0787   22.3885 C.ar    1  UNL1       -0.0011
      9 C          -9.8703  -17.0990   22.0042 C.ar    1  UNL1        0.0157
     10 C          -8.3710  -17.0753   22.0425 C.3     1  UNL1        0.2136
     11 H          -5.8343  -18.4491   21.5472 H       1  UNL1        0.2105
     12 C          -7.0923  -19.5899   21.0711 C.3     1  UNL1        0.1001
     13 C          -4.7577  -20.3868   20.2558 C.3     1  UNL1        0.0859
     14 N          -5.8932  -19.4090   20.1882 N.3     1  UNL1       -0.2942
     15 H          -6.2320  -19.4172   19.2262 H       1  UNL1        0.1234
     16 O          -7.5190  -15.9333   22.5113 O.3     1  UNL1       -0.4726
     17 C          -7.2945  -15.7180   23.9787 C.ar    1  UNL1        0.1351
     18 C          -8.4578  -15.7328   24.9256 C.ar    1  UNL1        0.0389
     19 C          -8.2334  -15.5176   26.3929 C.ar    1  UNL1        0.0327
     20 C          -6.8455  -15.2876   26.9135 C.ar    1  UNL1        0.1400
     21 F          -6.6210  -15.0724   28.3809 F       1  UNL1       -0.2042
     22 C          -5.6822  -15.2729   25.9667 C.ar    1  UNL1        0.0284
     23 C          -5.9066  -15.4881   24.4993 C.ar    1  UNL1        0.0144
     24 C          -4.7433  -15.4733   23.5525 C.3     1  UNL1        0.0343
@<TRIPOS>BOND
     1    13    14    1
     2    14    12    1
     3    12     1    1
     4     1     2    1
     5     1     3    1
     6     3     4    1
     7     4     5   ar
     8     5     6   ar
     9     6     7   ar
    10     7     8   ar
    11     8     9   ar
    12     9    10    1
    13    10    16    1
    14    16    17    1
    15    17    18   ar
    16    18    19   ar
    17    19    20   ar
    18    20    21    1
    19    20    22   ar
    20    22    23   ar
    21    23    24    1
    22    10     1    1
    23    23    17   ar
    24     9     4   ar
    25    14    15    1
    26     2    11    1
@<TRIPOS>MOLECULE
*****
 24 26 0 0 0
SMALL
GASTEIGER

@<TRIPOS>ATOM
      1 C          -6.4471  -18.9863   21.5657 C.3     1  UNL1        0.1471
      2 O          -7.3417  -19.7123   20.6051 O.3     1  UNL1       -0.3812
      3 C          -5.3431  -18.4794   22.4456 C.3     1  UNL1        0.0584
      4 C          -5.8494  -17.2698   23.1742 C.ar    1  UNL1       -0.0202
      5 C          -5.2032  -16.3565   24.1733 C.ar    1  UNL1       -0.0044
      6 C          -5.9740  -15.2026   24.7428 C.ar    1  UNL1       -0.0003
      7 C          -7.3909  -14.9620   24.3131 C.ar    1  UNL1       -0.0002
      8 C          -8.0370  -15.8753   23.3140 C.ar    1  UNL1       -0.0011
      9 C          -7.2662  -17.0292   22.7445 C.ar    1  UNL1        0.0157
     10 C          -7.6356  -18.0901   21.7504 C.3     1  UNL1        0.2136
     11 H          -6.8632  -20.4647   20.2233 H       1  UNL1        0.2105
     12 C          -5.4455  -20.0343   21.1801 C.3     1  UNL1        0.1001
     13 C          -3.5532  -19.3737   19.5270 C.3     1  UNL1        0.0859
     14 N          -4.0180  -19.6501   20.9261 N.3     1  UNL1       -0.2942
     15 H          -3.8398  -18.8045   21.4680 H       1  UNL1        0.1234
     16 O          -8.9609  -18.2300   21.0619 O.3     1  UNL1       -0.4726
     17 C         -10.2304  -18.1662   21.8585 C.ar    1  UNL1        0.1351
     18 C         -10.3030  -18.8183   23.2074 C.ar    1  UNL1        0.0389
     19 C         -11.5724  -18.7544   24.0040 C.ar    1  UNL1        0.0327
     20 C         -12.7691  -18.0384   23.4516 C.ar    1  UNL1        0.1400
     21 F         -14.0386  -17.9745   24.2482 F       1  UNL1       -0.2042
     22 C         -12.6965  -17.3863   22.1028 C.ar    1  UNL1        0.0284
     23 C         -11.4272  -17.4502   21.3062 C.ar    1  UNL1        0.0144
     24 C         -11.3545  -16.7981   19.9573 C.3     1  UNL1        0.0343
@<TRIPOS>BOND
     1    13    14    1
     2    14    12    1
     3    12     1    1
     4     1     2    1
     5     1     3    1
     6     3     4    1
     7     4     5   ar
     8     5     6   ar
     9     6     7   ar
    10     7     8   ar
    11     8     9   ar
    12     9    10    1
    13    10    16    1
    14    16    17    1
    15    17    18   ar
    16    18    19   ar
    17    19    20   ar
    18    20    21    1
    19    20    22   ar
    20    22    23   ar
    21    23    24    1
    22    10     1    1
    23    23    17   ar
    24     9     4   ar
    25    14    15    1
    26     2    11    1
@<TRIPOS>MOLECULE
*****
 24 26 0 0 0
SMALL
GASTEIGER

@<TRIPOS>ATOM
      1 C          -7.0827  -16.0825   23.2102 C.3     1  UNL1        0.1471
      2 O          -8.1596  -15.0383   23.2101 O.3     1  UNL1       -0.3812
      3 C          -5.8766  -16.9462   23.4317 C.3     1  UNL1        0.0584
      4 C          -5.9748  -18.1250   22.5093 C.ar    1  UNL1       -0.0202
      5 C          -5.0744  -19.3040   22.2879 C.ar    1  UNL1       -0.0044
      6 C          -5.4408  -20.3478   21.2749 C.ar    1  UNL1       -0.0003
      7 C          -6.7077  -20.2126   20.4833 C.ar    1  UNL1       -0.0002
      8 C          -7.6082  -19.0336   20.7047 C.ar    1  UNL1       -0.0011
      9 C          -7.2417  -17.9898   21.7177 C.ar    1  UNL1        0.0157
     10 C          -7.9265  -16.7275   22.1509 C.3     1  UNL1        0.2136
     11 H          -7.9435  -14.3509   23.8595 H       1  UNL1        0.2105
     12 C          -6.4641  -15.2192   24.2695 C.3     1  UNL1        0.1001
     13 C          -6.5269  -15.4693   26.8547 C.3     1  UNL1        0.0859
     14 N          -7.1695  -15.0156   25.5775 N.3     1  UNL1       -0.2942
     15 H          -7.3340  -14.0133   25.6705 H       1  UNL1        0.1234
     16 O          -9.2267  -16.2023   21.6182 O.3     1  UNL1       -0.4726
     17 C         -10.5239  -16.7718   22.1112 C.ar    1  UNL1        0.1351
     18 C         -10.5911  -17.4284   23.4582 C.ar    1  UNL1        0.0389
     19 C         -11.8882  -17.9978   23.9512 C.ar    1  UNL1        0.0327
     20 C         -13.1182  -17.9107   23.0971 C.ar    1  UNL1        0.1400
     21 F         -14.4154  -18.4802   23.5900 F       1  UNL1       -0.2042
     22 C         -13.0511  -17.2542   21.7501 C.ar    1  UNL1        0.0284
     23 C         -11.7540  -16.6847   21.2571 C.ar    1  UNL1        0.0144
     24 C         -11.6868  -16.0282   19.9101 C.3     1  UNL1        0.0343
@<TRIPOS>BOND
     1    13    14    1
     2    14    12    1
     3    12     1    1
     4     1     2    1
     5     1     3    1
     6     3     4    1
     7     4     5   ar
     8     5     6   ar
     9     6     7   ar
    10     7     8   ar
    11     8     9   ar
    12     9    10    1
    13    10    16    1
    14    16    17    1
    15    17    18   ar
    16    18    19   ar
    17    19    20   ar
    18    20    21    1
    19    20    22   ar
    20    22    23   ar
    21    23    24    1
    22    10     1    1
    23    23    17   ar
    24     9     4   ar
    25    14    15    1
    26     2    11    1
@<TRIPOS>MOLECULE
*****
 24 26 0 0 0
SMALL
GASTEIGER

@<TRIPOS>ATOM
      1 C          -5.0459  -19.0419   22.1189 C.3     1  UNL1        0.1471
      2 O          -5.4074  -20.2681   21.3342 O.3     1  UNL1       -0.3812
      3 C          -4.3899  -17.9125   22.8566 C.3     1  UNL1        0.0584
      4 C          -5.4688  -17.0079   23.3738 C.ar    1  UNL1       -0.0202
      5 C          -5.4176  -15.7386   24.1714 C.ar    1  UNL1       -0.0044
      6 C          -6.6893  -15.0396   24.5511 C.ar    1  UNL1       -0.0003
      7 C          -8.0122  -15.6100   24.1332 C.ar    1  UNL1       -0.0002
      8 C          -8.0634  -16.8793   23.3356 C.ar    1  UNL1       -0.0011
      9 C          -6.7917  -17.5783   22.9559 C.ar    1  UNL1        0.0157
     10 C          -6.5303  -18.8353   22.1804 C.3     1  UNL1        0.2136
     11 H          -4.5985  -20.7376   21.0771 H       1  UNL1        0.2105
     12 C          -3.6370  -19.5048   21.8935 C.3     1  UNL1        0.1001
     13 C          -2.6841  -18.8201   19.5755 C.3     1  UNL1        0.0859
     14 N          -3.1822  -19.8789   20.5139 N.3     1  UNL1       -0.2942
     15 H          -2.4248  -20.5528   20.6263 H       1  UNL1        0.1234
     16 O          -7.5707  -19.7289   21.5729 O.3     1  UNL1       -0.4726
     17 C          -9.0038  -19.2878   21.5264 C.ar    1  UNL1        0.1351
     18 C          -9.5127  -18.5153   20.3456 C.ar    1  UNL1        0.0389
     19 C         -10.9456  -18.0742   20.2990 C.ar    1  UNL1        0.0327
     20 C         -11.8696  -18.4057   21.4332 C.ar    1  UNL1        0.1400
     21 F         -13.3025  -17.9646   21.3867 F       1  UNL1       -0.2042
     22 C         -11.3606  -19.1782   22.6140 C.ar    1  UNL1        0.0284
     23 C          -9.9277  -19.6193   22.6606 C.ar    1  UNL1        0.0144
     24 C          -9.4188  -20.3918   23.8413 C.3     1  UNL1        0.0343
@<TRIPOS>BOND
     1    13    14    1
     2    14    12    1
     3    12     1    1
     4     1     2    1
     5     1     3    1
     6     3     4    1
     7     4     5   ar
     8     5     6   ar
     9     6     7   ar
    10     7     8   ar
    11     8     9   ar
    12     9    10    1
    13    10    16    1
    14    16    17    1
    15    17    18   ar
    16    18    19   ar
    17    19    20   ar
    18    20    21    1
    19    20    22   ar
    20    22    23   ar
    21    23    24    1
    22    10     1    1
    23    23    17   ar
    24     9     4   ar
    25    14    15    1
    26     2    11    1
@<TRIPOS>MOLECULE
*****
 24 26 0 0 0
SMALL
GASTEIGER

@<TRIPOS>ATOM
      1 C          -6.3779  -18.5937   21.8917 C.3     1  UNL1        0.1471
      2 O          -6.4636  -17.5141   22.9295 O.3     1  UNL1       -0.3812
      3 C          -5.9982  -19.7047   20.9582 C.3     1  UNL1        0.0584
      4 C          -7.1879  -20.0152   20.0990 C.ar    1  UNL1       -0.0202
      5 C          -7.4000  -21.0162   19.0021 C.ar    1  UNL1       -0.0044
      6 C          -8.7271  -21.0980   18.3078 C.ar    1  UNL1       -0.0003
      7 C          -9.8421  -20.1789   18.7103 C.ar    1  UNL1       -0.0002
      8 C          -9.6300  -19.1780   19.8071 C.ar    1  UNL1       -0.0011
      9 C          -8.3029  -19.0961   20.5015 C.ar    1  UNL1        0.0157
     10 C          -7.8023  -18.2176   21.6094 C.3     1  UNL1        0.2136
     11 H          -5.6144  -17.4428   23.3928 H       1  UNL1        0.2105
     12 C          -4.9715  -18.7441   22.3909 C.3     1  UNL1        0.1001
     13 C          -2.8103  -17.3036   22.4553 C.3     1  UNL1        0.0859
     14 N          -3.8445  -18.0600   21.6754 N.3     1  UNL1       -0.2942
     15 H          -3.3487  -18.7803   21.1503 H       1  UNL1        0.1234
     16 O          -8.5882  -17.1503   22.3118 O.3     1  UNL1       -0.4726
     17 C          -9.9956  -17.4231   22.7534 C.ar    1  UNL1        0.1351
     18 C         -10.2543  -18.3507   23.9034 C.ar    1  UNL1        0.0389
     19 C         -11.6615  -18.6235   24.3451 C.ar    1  UNL1        0.0327
     20 C         -12.8101  -17.9687   23.6367 C.ar    1  UNL1        0.1400
     21 F         -14.2175  -18.2414   24.0783 F       1  UNL1       -0.2042
     22 C         -12.5515  -17.0410   22.4867 C.ar    1  UNL1        0.0284
     23 C         -11.1442  -16.7682   22.0450 C.ar    1  UNL1        0.0144
     24 C         -10.8855  -15.8405   20.8950 C.3     1  UNL1        0.0343
@<TRIPOS>BOND
     1    13    14    1
     2    14    12    1
     3    12     1    1
     4     1     2    1
     5     1     3    1
     6     3     4    1
     7     4     5   ar
     8     5     6   ar
     9     6     7   ar
    10     7     8   ar
    11     8     9   ar
    12     9    10    1
    13    10    16    1
    14    16    17    1
    15    17    18   ar
    16    18    19   ar
    17    19    20   ar
    18    20    21    1
    19    20    22   ar
    20    22    23   ar
    21    23    24    1
    22    10     1    1
    23    23    17   ar
    24     9     4   ar
    25    14    15    1
    26     2    11    1
@<TRIPOS>MOLECULE
*****
 24 26 0 0 0
SMALL
GASTEIGER

@<TRIPOS>ATOM
      1 C          -6.2870  -16.9001   23.5319 C.3     1  UNL1        0.1471
      2 O          -7.5180  -16.3155   24.1586 O.3     1  UNL1       -0.3812
      3 C          -4.9075  -17.2597   23.0654 C.3     1  UNL1        0.0584
      4 C          -5.0224  -18.4360   22.1417 C.ar    1  UNL1       -0.0202
      5 C          -3.9936  -19.2200   21.3822 C.ar    1  UNL1       -0.0044
      6 C          -4.4154  -20.3714   20.5183 C.ar    1  UNL1       -0.0003
      7 C          -5.8660  -20.7387   20.4139 C.ar    1  UNL1       -0.0002
      8 C          -6.8948  -19.9547   21.1734 C.ar    1  UNL1       -0.0011
      9 C          -6.4730  -18.8033   22.0373 C.ar    1  UNL1        0.0157
     10 C          -7.2545  -17.8541   22.8965 C.3     1  UNL1        0.2136
     11 H          -7.2691  -15.5672   24.7233 H       1  UNL1        0.2105
     12 C          -5.5768  -15.8239   24.2983 C.3     1  UNL1        0.1001
     13 C          -6.1788  -15.2023   26.7480 C.3     1  UNL1        0.0859
     14 N          -6.3347  -14.9731   25.2739 N.3     1  UNL1       -0.2942
     15 H          -6.0618  -14.0066   25.0957 H       1  UNL1        0.1234
     16 O          -8.7424  -17.8582   23.0868 O.3     1  UNL1       -0.4726
     17 C          -9.6384  -17.3323   22.0047 C.ar    1  UNL1        0.1351
     18 C          -9.5913  -15.8801   21.6318 C.ar    1  UNL1        0.0389
     19 C         -10.4872  -15.3542   20.5498 C.ar    1  UNL1        0.0327
     20 C         -11.4302  -16.2804   19.8408 C.ar    1  UNL1        0.1400
     21 F         -12.3262  -15.7545   18.7588 F       1  UNL1       -0.2042
     22 C         -11.4774  -17.7325   20.2138 C.ar    1  UNL1        0.0284
     23 C         -10.5814  -18.2585   21.2957 C.ar    1  UNL1        0.0144
     24 C         -10.6286  -19.7106   21.6687 C.3     1  UNL1        0.0343
@<TRIPOS>BOND
     1    13    14    1
     2    14    12    1
     3    12     1    1
     4     1     2    1
     5     1     3    1
     6     3     4    1
     7     4     5   ar
     8     5     6   ar
     9     6     7   ar
    10     7     8   ar
    11     8     9   ar
    12     9    10    1
    13    10    16    1
    14    16    17    1
    15    17    18   ar
    16    18    19   ar
    17    19    20   ar
    18    20    21    1
    19    20    22   ar
    20    22    23   ar
    21    23    24    1
    22    10     1    1
    23    23    17   ar
    24     9     4   ar
    25    14    15    1
    26     2    11    1
@<TRIPOS>MOLECULE
*****
 24 26 0 0 0
SMALL
GASTEIGER

@<TRIPOS>ATOM
      1 C         -15.2351   -7.2636   19.1770 C.3     1  UNL1        0.1471
      2 O         -14.2800   -8.4056   18.9933 O.3     1  UNL1       -0.3812
      3 C         -16.4095   -6.3440   19.3349 C.3     1  UNL1        0.0584
      4 C         -15.8858   -4.9503   19.5176 C.ar    1  UNL1       -0.0202
      5 C         -16.5796   -3.6358   19.7191 C.ar    1  UNL1       -0.0044
      6 C         -15.7752   -2.3795   19.8756 C.ar    1  UNL1       -0.0003
      7 C         -14.2770   -2.4377   19.8306 C.ar    1  UNL1       -0.0002
      8 C         -13.5832   -3.7522   19.6290 C.ar    1  UNL1       -0.0011
      9 C         -14.3876   -5.0085   19.4726 C.ar    1  UNL1        0.0157
     10 C         -13.9855   -6.4382   19.2621 C.3     1  UNL1        0.2136
     11 H         -14.7791   -9.2309   18.8898 H       1  UNL1        0.2105
     12 C         -16.2850   -8.3277   19.0536 C.3     1  UNL1        0.1001
     13 C         -16.9073  -10.8068   18.5880 C.3     1  UNL1        0.0859
     14 N         -15.8830   -9.7681   18.9371 N.3     1  UNL1       -0.2942
     15 H         -15.1598   -9.8149   18.2194 H       1  UNL1        0.1234
     16 O         -12.5803   -6.9522   19.1554 O.3     1  UNL1       -0.4726
     17 C         -11.5526   -6.1726   18.3897 C.ar    1  UNL1        0.1351
     18 C         -10.4759   -5.4289   19.1229 C.ar    1  UNL1        0.0389
     19 C          -9.4482   -4.6493   18.3573 C.ar    1  UNL1        0.0327
     20 C          -9.4973   -4.6135   16.8586 C.ar    1  UNL1        0.1400
     21 F          -8.4696   -3.8339   16.0929 F       1  UNL1       -0.2042
     22 C         -10.5740   -5.3572   16.1254 C.ar    1  UNL1        0.0284
     23 C         -11.6017   -6.1368   16.8909 C.ar    1  UNL1        0.0144
     24 C         -12.6784   -6.8805   16.1578 C.3     1  UNL1        0.0343
@<TRIPOS>BOND
     1    13    14    1
     2    14    12    1
     3    12     1    1
     4     1     2    1
     5     1     3    1
     6     3     4    1
     7     4     5   ar
     8     5     6   ar
     9     6     7   ar
    10     7     8   ar
    11     8     9   ar
    12     9    10    1
    13    10    16    1
    14    16    17    1
    15    17    18   ar
    16    18    19   ar
    17    19    20   ar
    18    20    21    1
    19    20    22   ar
    20    22    23   ar
    21    23    24    1
    22    10     1    1
    23    23    17   ar
    24     9     4   ar
    25    14    15    1
    26     2    11    1
@<TRIPOS>MOLECULE
*****
 24 26 0 0 0
SMALL
GASTEIGER

@<TRIPOS>ATOM
      1 C          -7.4300  -18.8948   21.7016 C.3     1  UNL1        0.1471
      2 O          -6.7531  -20.1026   21.1244 O.3     1  UNL1       -0.3812
      3 C          -8.3587  -17.7966   22.1276 C.3     1  UNL1        0.0584
      4 C          -7.5862  -16.8459   22.9932 C.ar    1  UNL1       -0.0202
      5 C          -7.9815  -15.5812   23.6962 C.ar    1  UNL1       -0.0044
      6 C          -6.9706  -14.8271   24.5082 C.ar    1  UNL1       -0.0003
      7 C          -5.5644  -15.3376   24.6171 C.ar    1  UNL1       -0.0002
      8 C          -5.1691  -16.6022   23.9141 C.ar    1  UNL1       -0.0011
      9 C          -6.1799  -17.3564   23.1021 C.ar    1  UNL1        0.0157
     10 C          -6.0834  -18.6227   22.3038 C.3     1  UNL1        0.2136
     11 H          -7.3893  -20.6071   20.5938 H       1  UNL1        0.2105
     12 C          -8.6350  -19.4193   20.9786 C.3     1  UNL1        0.1001
     13 C         -10.7476  -18.9872   19.5294 C.3     1  UNL1        0.0859
     14 N          -9.4739  -18.4933   20.1488 N.3     1  UNL1       -0.2942
     15 H          -9.7235  -17.7060   20.7474 H       1  UNL1        0.1234
     16 O          -4.8558  -19.4684   22.1371 O.3     1  UNL1       -0.4726
     17 C          -3.7440  -19.0082   21.2414 C.ar    1  UNL1        0.1351
     18 C          -3.8500  -19.1963   19.7571 C.ar    1  UNL1        0.0389
     19 C          -2.7383  -18.7362   18.8614 C.ar    1  UNL1        0.0327
     20 C          -1.5204  -18.0879   19.4501 C.ar    1  UNL1        0.1400
     21 F          -0.4087  -17.6277   18.5545 F       1  UNL1       -0.2042
     22 C          -1.4144  -17.8997   20.9345 C.ar    1  UNL1        0.0284
     23 C          -2.5261  -18.3598   21.8302 C.ar    1  UNL1        0.0144
     24 C          -2.4201  -18.1717   23.3145 C.3     1  UNL1        0.0343
@<TRIPOS>BOND
     1    13    14    1
     2    14    12    1
     3    12     1    1
     4     1     2    1
     5     1     3    1
     6     3     4    1
     7     4     5   ar
     8     5     6   ar
     9     6     7   ar
    10     7     8   ar
    11     8     9   ar
    12     9    10    1
    13    10    16    1
    14    16    17    1
    15    17    18   ar
    16    18    19   ar
    17    19    20   ar
    18    20    21    1
    19    20    22   ar
    20    22    23   ar
    21    23    24    1
    22    10     1    1
    23    23    17   ar
    24     9     4   ar
    25    14    15    1
    26     2    11    1
@<TRIPOS>MOLECULE
*****
 24 26 0 0 0
SMALL
GASTEIGER

@<TRIPOS>ATOM
      1 C          -6.7944  -18.6095   21.9679 C.3     1  UNL1        0.1471
      2 O          -5.7424  -17.6927   22.5182 O.3     1  UNL1       -0.3812
      3 C          -7.6187  -19.7413   21.4299 C.3     1  UNL1        0.0584
      4 C          -8.9979  -19.2201   21.1539 C.ar    1  UNL1       -0.0202
      5 C         -10.2317  -19.8817   20.6154 C.ar    1  UNL1       -0.0044
      6 C         -11.4937  -19.0892   20.4445 C.ar    1  UNL1       -0.0003
      7 C         -11.5218  -17.6352   20.8119 C.ar    1  UNL1       -0.0002
      8 C         -10.2880  -16.9736   21.3504 C.ar    1  UNL1       -0.0011
      9 C          -9.0260  -17.7661   21.5213 C.ar    1  UNL1        0.0157
     10 C          -7.6642  -17.3887   22.0244 C.3     1  UNL1        0.2136
     11 H          -4.9150  -18.1848   22.6374 H       1  UNL1        0.2105
     12 C          -5.7047  -19.6386   22.0264 C.3     1  UNL1        0.1001
     13 C          -3.1338  -19.6845   21.6545 C.3     1  UNL1        0.0859
     14 N          -4.3227  -19.2441   22.4560 N.3     1  UNL1       -0.2942
     15 H          -4.3012  -18.2245   22.4786 H       1  UNL1        0.1234
     16 O          -7.2457  -16.0292   22.5005 O.3     1  UNL1       -0.4726
     17 C          -7.0635  -15.7713   23.9669 C.ar    1  UNL1        0.1351
     18 C          -5.6978  -15.4761   24.5125 C.ar    1  UNL1        0.0389
     19 C          -5.5155  -15.2181   25.9788 C.ar    1  UNL1        0.0327
     20 C          -6.6990  -15.2554   26.8996 C.ar    1  UNL1        0.1400
     21 F          -6.5169  -14.9974   28.3660 F       1  UNL1       -0.2042
     22 C          -8.0648  -15.5506   26.3541 C.ar    1  UNL1        0.0284
     23 C          -8.2470  -15.8085   24.8877 C.ar    1  UNL1        0.0144
     24 C          -9.6127  -16.1038   24.3422 C.3     1  UNL1        0.0343
@<TRIPOS>BOND
     1    13    14    1
     2    14    12    1
     3    12     1    1
     4     1     2    1
     5     1     3    1
     6     3     4    1
     7     4     5   ar
     8     5     6   ar
     9     6     7   ar
    10     7     8   ar
    11     8     9   ar
    12     9    10    1
    13    10    16    1
    14    16    17    1
    15    17    18   ar
    16    18    19   ar
    17    19    20   ar
    18    20    21    1
    19    20    22   ar
    20    22    23   ar
    21    23    24    1
    22    10     1    1
    23    23    17   ar
    24     9     4   ar
    25    14    15    1
    26     2    11    1
