@<TRIPOS>MOLECULE
*****
 27 29 0 0 0
SMALL
GASTEIGER

@<TRIPOS>ATOM
      1 C          -6.4199  -18.4994   21.8730 C.ar    1  UNL1        0.1655
      2 N          -5.4755  -18.1011   22.9681 N.ar    1  UNL1       -0.2239
      3 C          -4.0755  -18.2568   22.4524 C.ar    1  UNL1        0.0894
      4 C          -2.7389  -18.0121   23.0876 C.ar    1  UNL1        0.0228
      5 C          -1.4815  -18.2621   22.3090 C.ar    1  UNL1        0.0388
      6 C          -1.5607  -18.7567   20.8951 C.ar    1  UNL1        0.1474
      7 C          -2.8973  -19.0014   20.2599 C.ar    1  UNL1        0.0452
      8 C          -4.1548  -18.7514   21.0385 C.ar    1  UNL1        0.0527
      9 S          -5.6037  -18.9014   20.6804 S.2     1  UNL1       -0.0513
     10 C          -8.6686  -17.1987   21.9108 C.2     1  UNL1        0.2270
     11 O          -7.9219  -15.9040   21.7830 O.2     1  UNL1       -0.2747
     12 N          -7.9176  -18.4963   21.9558 N.am    1  UNL1       -0.2641
     13 H          -8.4077  -19.3461   22.0397 H       1  UNL1        0.1567
     14 C         -13.2820  -15.8519   19.9353 C.3     1  UNL1        0.0000
     15 C         -12.4730  -16.5222   21.0058 C.3     1  UNL1        0.0005
     16 C         -10.9753  -16.5253   20.9230 C.3     1  UNL1        0.0091
     17 C         -10.1663  -17.1956   21.9936 C.3     1  UNL1        0.0769
     18 C         -10.8550  -17.8629   23.1470 C.3     1  UNL1        0.0091
     19 C         -12.3528  -17.8598   23.2299 C.3     1  UNL1        0.0005
     20 C         -12.0243  -18.6209   24.4800 C.3     1  UNL1        0.0000
     21 C         -13.7363  -18.1211   23.7468 C.3     1  UNL1        0.0000
     22 C         -13.1617  -17.1895   22.1593 C.3     1  UNL1        0.0000
     23 O          -0.3032  -19.0067   20.1164 O.3     1  UNL1       -0.4044
     24 C           0.5858  -17.8591   19.7389 C.3     1  UNL1        0.5753
     25 F           1.4748  -16.7114   19.3613 F       1  UNL1       -0.1328
     26 F          -0.3762  -17.4702   18.6557 F       1  UNL1       -0.1328
     27 F           1.5478  -18.2479   20.8221 F       1  UNL1       -0.1328
@<TRIPOS>BOND
     1    14    15    1
     2    15    16    1
     3    16    17    1
     4    17    10    1
     5    10    11    2
     6    10    12   am
     7    12     1    1
     8     1     2   ar
     9     2     3   ar
    10     3     4   ar
    11     4     5   ar
    12     5     6   ar
    13     6    23    1
    14    23    24    1
    15    24    25    1
    16    24    26    1
    17    24    27    1
    18     6     7   ar
    19     7     8   ar
    20     8     9   ar
    21    17    18    1
    22    18    19    1
    23    19    20    1
    24    19    21    1
    25    19    22    1
    26    22    15    1
    27     9     1   ar
    28     8     3   ar
    29    12    13    1
@<TRIPOS>MOLECULE
*****
 27 29 0 0 0
SMALL
GASTEIGER

@<TRIPOS>ATOM
      1 C           6.8052   -3.8256   22.5134 C.ar    1  UNL1        0.1655
      2 N           7.6988   -4.9479   22.0753 N.ar    1  UNL1       -0.2239
      3 C           8.0509   -5.7599   23.2863 C.ar    1  UNL1        0.0894
      4 C           8.8997   -6.9840   23.4619 C.ar    1  UNL1        0.0228
      5 C           9.0726   -7.5877   24.8241 C.ar    1  UNL1        0.0388
      6 C           8.3966   -6.9673   26.0107 C.ar    1  UNL1        0.1474
      7 C           7.5478   -5.7431   25.8351 C.ar    1  UNL1        0.0452
      8 C           7.3749   -5.1394   24.4730 C.ar    1  UNL1        0.0527
      9 S           6.6050   -3.9440   23.9952 S.2     1  UNL1       -0.0513
     10 C           4.9584   -3.0531   20.8573 C.2     1  UNL1        0.2270
     11 O           4.2913   -4.3913   20.9769 O.2     1  UNL1       -0.2747
     12 N           6.2153   -2.7702   21.6255 N.am    1  UNL1       -0.2641
     13 H           6.6531   -1.8919   21.5470 H       1  UNL1        0.1567
     14 C           5.4179    0.2416   16.8656 C.3     1  UNL1        0.0000
     15 C           4.5983   -0.3504   17.9736 C.3     1  UNL1        0.0005
     16 C           5.1882   -1.4057   18.8614 C.3     1  UNL1        0.0091
     17 C           4.3685   -1.9977   19.9695 C.3     1  UNL1        0.0769
     18 C           2.9590   -1.5343   20.1896 C.3     1  UNL1        0.0091
     19 C           2.3691   -0.4790   19.3018 C.3     1  UNL1        0.0005
     20 C           1.2041   -0.7354   20.2112 C.3     1  UNL1        0.0000
     21 C           1.3746    0.4873   18.7298 C.3     1  UNL1        0.0000
     22 C           3.1887    0.1130   18.1938 C.3     1  UNL1        0.0000
     23 O           8.5695   -7.5711   27.3729 O.3     1  UNL1       -0.4044
     24 C           8.2484   -9.0189   27.5979 C.3     1  UNL1        0.5753
     25 F           7.9272  -10.4668   27.8228 F       1  UNL1       -0.1328
     26 F           9.5305   -9.1851   28.3584 F       1  UNL1       -0.1328
     27 F           6.9662   -8.8526   26.8373 F       1  UNL1       -0.1328
@<TRIPOS>BOND
     1    14    15    1
     2    15    16    1
     3    16    17    1
     4    17    10    1
     5    10    11    2
     6    10    12   am
     7    12     1    1
     8     1     2   ar
     9     2     3   ar
    10     3     4   ar
    11     4     5   ar
    12     5     6   ar
    13     6    23    1
    14    23    24    1
    15    24    25    1
    16    24    26    1
    17    24    27    1
    18     6     7   ar
    19     7     8   ar
    20     8     9   ar
    21    17    18    1
    22    18    19    1
    23    19    20    1
    24    19    21    1
    25    19    22    1
    26    22    15    1
    27     9     1   ar
    28     8     3   ar
    29    12    13    1
@<TRIPOS>MOLECULE
*****
 27 29 0 0 0
SMALL
GASTEIGER

@<TRIPOS>ATOM
      1 C           6.4550   -3.5817   23.0623 C.ar    1  UNL1        0.1655
      2 N           7.2783   -4.7974   22.7552 N.ar    1  UNL1       -0.2239
      3 C           7.5295   -5.5245   24.0430 C.ar    1  UNL1        0.0894
      4 C           8.2802   -6.7854   24.3537 C.ar    1  UNL1        0.0228
      5 C           8.3629   -7.2799   25.7674 C.ar    1  UNL1        0.0388
      6 C           7.6950   -6.5135   26.8703 C.ar    1  UNL1        0.1474
      7 C           6.9443   -5.2526   26.5596 C.ar    1  UNL1        0.0452
      8 C           6.8615   -4.7581   25.1459 C.ar    1  UNL1        0.0527
      9 S           6.1975   -3.5574   24.5398 S.2     1  UNL1       -0.0513
     10 C           4.8963   -2.9310   21.0882 C.2     1  UNL1        0.2270
     11 O           4.3000   -4.3073   21.1053 O.2     1  UNL1       -0.2747
     12 N           5.9738   -2.5682   22.0666 N.am    1  UNL1       -0.2641
     13 H           6.3652   -1.6649   22.0554 H       1  UNL1        0.1567
     14 C           5.8064    0.1468   17.0017 C.3     1  UNL1        0.0000
     15 C           4.8702   -0.3786   18.0493 C.3     1  UNL1        0.0005
     16 C           5.3514   -1.3921   19.0449 C.3     1  UNL1        0.0091
     17 C           4.4151   -1.9175   20.0925 C.3     1  UNL1        0.0769
     18 C           2.9978   -1.4294   20.1445 C.3     1  UNL1        0.0091
     19 C           2.5166   -0.4159   19.1488 C.3     1  UNL1        0.0005
     20 C           1.2619   -0.6132   19.9469 C.3     1  UNL1        0.0000
     21 C           1.5997    0.5290   18.4304 C.3     1  UNL1        0.0000
     22 C           3.4527    0.1095   18.1013 C.3     1  UNL1        0.0000
     23 O           7.7777   -7.0080   28.2841 O.3     1  UNL1       -0.4044
     24 C           8.0421   -6.0434   29.4019 C.3     1  UNL1        0.5753
     25 F           8.3064   -5.0786   30.5197 F       1  UNL1       -0.1328
     26 F           9.5029   -6.0493   29.0615 F       1  UNL1       -0.1328
     27 F           6.5812   -6.0374   29.7422 F       1  UNL1       -0.1328
@<TRIPOS>BOND
     1    14    15    1
     2    15    16    1
     3    16    17    1
     4    17    10    1
     5    10    11    2
     6    10    12   am
     7    12     1    1
     8     1     2   ar
     9     2     3   ar
    10     3     4   ar
    11     4     5   ar
    12     5     6   ar
    13     6    23    1
    14    23    24    1
    15    24    25    1
    16    24    26    1
    17    24    27    1
    18     6     7   ar
    19     7     8   ar
    20     8     9   ar
    21    17    18    1
    22    18    19    1
    23    19    20    1
    24    19    21    1
    25    19    22    1
    26    22    15    1
    27     9     1   ar
    28     8     3   ar
    29    12    13    1
@<TRIPOS>MOLECULE
*****
 27 29 0 0 0
SMALL
GASTEIGER

@<TRIPOS>ATOM
      1 C           6.8085   -4.1132   23.1059 C.ar    1  UNL1        0.1655
      2 N           7.5277   -5.4169   22.9242 N.ar    1  UNL1       -0.2239
      3 C           7.7375   -6.0234   24.2800 C.ar    1  UNL1        0.0894
      4 C           8.3892   -7.3015   24.7179 C.ar    1  UNL1        0.0228
      5 C           8.4514   -7.6506   26.1753 C.ar    1  UNL1        0.0388
      6 C           7.8618   -6.7217   27.1949 C.ar    1  UNL1        0.1474
      7 C           7.2101   -5.4437   26.7570 C.ar    1  UNL1        0.0452
      8 C           7.1480   -5.0945   25.2996 C.ar    1  UNL1        0.0527
      9 S           6.5738   -3.9139   24.5739 S.2     1  UNL1       -0.0513
     10 C           4.9668   -3.1301   21.5593 C.2     1  UNL1        0.2270
     11 O           3.9494   -4.0261   22.2014 O.2     1  UNL1       -0.2747
     12 N           6.3963   -3.1737   22.0116 N.am    1  UNL1       -0.2641
     13 H           7.0640   -2.5857   21.5902 H       1  UNL1        0.1567
     14 C           1.3836   -0.0728   19.3654 C.3     1  UNL1        0.0000
     15 C           2.7630   -0.6620   19.3681 C.3     1  UNL1        0.0005
     16 C           3.1751   -1.6015   20.4624 C.3     1  UNL1        0.0091
     17 C           4.5546   -2.1906   20.4650 C.3     1  UNL1        0.0769
     18 C           5.5219   -1.8403   19.3734 C.3     1  UNL1        0.0091
     19 C           5.1097   -0.9008   18.2792 C.3     1  UNL1        0.0005
     20 C           6.5156   -1.1997   17.8501 C.3     1  UNL1        0.0000
     21 C           5.1858   -0.0651   17.0359 C.3     1  UNL1        0.0000
     22 C           3.7303   -0.3116   18.2765 C.3     1  UNL1        0.0000
     23 O           7.9240   -7.0709   28.6524 O.3     1  UNL1       -0.4044
     24 C           8.1146   -5.9903   29.6751 C.3     1  UNL1        0.5753
     25 F           8.3053   -4.9097   30.6978 F       1  UNL1       -0.1328
     26 F           6.6952   -6.1672   30.1266 F       1  UNL1       -0.1328
     27 F           9.5341   -5.8135   29.2236 F       1  UNL1       -0.1328
@<TRIPOS>BOND
     1    14    15    1
     2    15    16    1
     3    16    17    1
     4    17    10    1
     5    10    11    2
     6    10    12   am
     7    12     1    1
     8     1     2   ar
     9     2     3   ar
    10     3     4   ar
    11     4     5   ar
    12     5     6   ar
    13     6    23    1
    14    23    24    1
    15    24    25    1
    16    24    26    1
    17    24    27    1
    18     6     7   ar
    19     7     8   ar
    20     8     9   ar
    21    17    18    1
    22    18    19    1
    23    19    20    1
    24    19    21    1
    25    19    22    1
    26    22    15    1
    27     9     1   ar
    28     8     3   ar
    29    12    13    1
@<TRIPOS>MOLECULE
*****
 27 29 0 0 0
SMALL
GASTEIGER

@<TRIPOS>ATOM
      1 C           6.3505   -3.8689   22.6896 C.ar    1  UNL1        0.1655
      2 N           5.1803   -4.2013   21.8119 N.ar    1  UNL1       -0.2239
      3 C           5.3655   -3.4909   20.5038 C.ar    1  UNL1        0.0894
      4 C           4.5304   -3.4468   19.2586 C.ar    1  UNL1        0.0228
      5 C           4.9798   -2.6313   18.0827 C.ar    1  UNL1        0.0388
      6 C           6.2644   -1.8599   18.1519 C.ar    1  UNL1        0.1474
      7 C           7.0995   -1.9040   19.3971 C.ar    1  UNL1        0.0452
      8 C           6.6501   -2.7195   20.5731 C.ar    1  UNL1        0.0527
      9 S           7.2588   -2.9531   21.9240 S.2     1  UNL1       -0.0513
     10 C           7.4160   -5.5829   24.3257 C.2     1  UNL1        0.2270
     11 O           8.0362   -6.3044   23.1660 O.2     1  UNL1       -0.2747
     12 N           6.5731   -4.3652   24.0875 N.am    1  UNL1       -0.2641
     13 H           6.1661   -3.8918   24.8486 H       1  UNL1        0.1567
     14 C           9.4169   -9.0981   27.5876 C.3     1  UNL1        0.0000
     15 C           8.6392   -7.8368   27.3545 C.3     1  UNL1        0.0005
     16 C           8.4165   -7.3405   25.9567 C.3     1  UNL1        0.0091
     17 C           7.6387   -6.0792   25.7236 C.3     1  UNL1        0.0769
     18 C           7.0836   -5.3143   26.8884 C.3     1  UNL1        0.0091
     19 C           7.3063   -5.8106   28.2862 C.3     1  UNL1        0.0005
     20 C           6.5098   -4.5724   28.5732 C.3     1  UNL1        0.0000
     21 C           7.2524   -5.8769   29.7838 C.3     1  UNL1        0.0000
     22 C           8.0841   -7.0718   28.5194 C.3     1  UNL1        0.0000
     23 O           6.7138   -1.0443   16.9759 O.3     1  UNL1       -0.4044
     24 C           6.3938    0.4197   16.9122 C.3     1  UNL1        0.5753
     25 F           6.0738    1.8839   16.8486 F       1  UNL1       -0.1328
     26 F           7.8100    0.7454   17.2840 F       1  UNL1       -0.1328
     27 F           4.9776    0.0940   16.5405 F       1  UNL1       -0.1328
@<TRIPOS>BOND
     1    14    15    1
     2    15    16    1
     3    16    17    1
     4    17    10    1
     5    10    11    2
     6    10    12   am
     7    12     1    1
     8     1     2   ar
     9     2     3   ar
    10     3     4   ar
    11     4     5   ar
    12     5     6   ar
    13     6    23    1
    14    23    24    1
    15    24    25    1
    16    24    26    1
    17    24    27    1
    18     6     7   ar
    19     7     8   ar
    20     8     9   ar
    21    17    18    1
    22    18    19    1
    23    19    20    1
    24    19    21    1
    25    19    22    1
    26    22    15    1
    27     9     1   ar
    28     8     3   ar
    29    12    13    1
@<TRIPOS>MOLECULE
*****
 27 29 0 0 0
SMALL
GASTEIGER

@<TRIPOS>ATOM
      1 C           3.8237   -1.4093   27.3005 C.ar    1  UNL1        0.1655
      2 N           2.6626   -0.9890   28.1521 N.ar    1  UNL1       -0.2239
      3 C           3.1826   -0.6781   29.5243 C.ar    1  UNL1        0.0894
      4 C           2.4977   -0.2168   30.7765 C.ar    1  UNL1        0.0228
      5 C           3.2953    0.0164   32.0252 C.ar    1  UNL1        0.0388
      6 C           4.7778   -0.2118   32.0218 C.ar    1  UNL1        0.1474
      7 C           5.4627   -0.6732   30.7696 C.ar    1  UNL1        0.0452
      8 C           4.6651   -0.9063   29.5208 C.ar    1  UNL1        0.0527
      9 S           5.0613   -1.3582   28.1465 S.2     1  UNL1       -0.0513
     10 C           3.5176   -0.7730   24.8003 C.2     1  UNL1        0.2270
     11 O           3.3417    0.6654   25.1879 O.2     1  UNL1       -0.2747
     12 N           3.7586   -1.8103   25.8566 N.am    1  UNL1       -0.2641
     13 H           3.8741   -2.7543   25.6022 H       1  UNL1        0.1567
     14 C           1.5582   -0.1192   20.0323 C.3     1  UNL1        0.0000
     15 C           2.4728   -0.8470   20.9723 C.3     1  UNL1        0.0005
     16 C           2.5379   -0.4460   22.4163 C.3     1  UNL1        0.0091
     17 C           3.4526   -1.1739   23.3563 C.3     1  UNL1        0.0769
     18 C           4.3021   -2.3028   22.8524 C.3     1  UNL1        0.0091
     19 C           4.2370   -2.7037   21.4084 C.3     1  UNL1        0.0005
     20 C           5.2514   -3.6898   21.9072 C.3     1  UNL1        0.0000
     21 C           4.5242   -3.4471   20.1377 C.3     1  UNL1        0.0000
     22 C           3.3224   -1.9759   20.4684 C.3     1  UNL1        0.0000
     23 O           5.5755    0.0214   33.2706 O.3     1  UNL1       -0.4044
     24 C           5.0255   -0.3991   34.6012 C.3     1  UNL1        0.5753
     25 F           4.4755   -0.8195   35.9320 F       1  UNL1       -0.1328
     26 F           4.9383    1.0387   35.0195 F       1  UNL1       -0.1328
     27 F           5.1126   -1.8369   34.1829 F       1  UNL1       -0.1328
@<TRIPOS>BOND
     1    14    15    1
     2    15    16    1
     3    16    17    1
     4    17    10    1
     5    10    11    2
     6    10    12   am
     7    12     1    1
     8     1     2   ar
     9     2     3   ar
    10     3     4   ar
    11     4     5   ar
    12     5     6   ar
    13     6    23    1
    14    23    24    1
    15    24    25    1
    16    24    26    1
    17    24    27    1
    18     6     7   ar
    19     7     8   ar
    20     8     9   ar
    21    17    18    1
    22    18    19    1
    23    19    20    1
    24    19    21    1
    25    19    22    1
    26    22    15    1
    27     9     1   ar
    28     8     3   ar
    29    12    13    1
@<TRIPOS>MOLECULE
*****
 27 29 0 0 0
SMALL
GASTEIGER

@<TRIPOS>ATOM
      1 C           3.8730   -1.3864   27.3932 C.ar    1  UNL1        0.1655
      2 N           2.7246   -0.9528   28.2552 N.ar    1  UNL1       -0.2239
      3 C           3.2549   -0.6816   29.6319 C.ar    1  UNL1        0.0894
      4 C           2.5843   -0.2268   30.8942 C.ar    1  UNL1        0.0228
      5 C           3.3899   -0.0380   32.1453 C.ar    1  UNL1        0.0388
      6 C           4.8661   -0.3041   32.1342 C.ar    1  UNL1        0.1474
      7 C           5.5367   -0.7590   30.8719 C.ar    1  UNL1        0.0452
      8 C           4.7311   -0.9477   29.6208 C.ar    1  UNL1        0.0527
      9 S           5.1131   -1.3833   28.2372 S.2     1  UNL1       -0.0513
     10 C           3.5226   -0.7029   24.9113 C.2     1  UNL1        0.2270
     11 O           3.3281    0.7238   25.3316 O.2     1  UNL1       -0.2747
     12 N           3.7951   -1.7580   25.9420 N.am    1  UNL1       -0.2641
     13 H           3.9228   -2.6944   25.6661 H       1  UNL1        0.1567
     14 C           5.0510   -3.6877   20.9420 C.3     1  UNL1        0.0000
     15 C           4.2089   -2.5669   21.4755 C.3     1  UNL1        0.0005
     16 C           4.2868   -2.1954   22.9266 C.3     1  UNL1        0.0091
     17 C           3.4447   -1.0745   23.4601 C.3     1  UNL1        0.0769
     18 C           2.5246   -0.3253   22.5425 C.3     1  UNL1        0.0091
     19 C           2.4467   -0.6969   21.0913 C.3     1  UNL1        0.0005
     20 C           1.4583    0.4309   21.1249 C.3     1  UNL1        0.0000
     21 C           2.0255   -0.6768   19.6518 C.3     1  UNL1        0.0000
     22 C           3.2888   -1.8176   20.5578 C.3     1  UNL1        0.0000
     23 O           5.6717   -0.1154   33.3854 O.3     1  UNL1       -0.4044
     24 C           5.0596   -0.4090   34.7229 C.3     1  UNL1        0.5753
     25 F           4.4474   -0.7026   36.0605 F       1  UNL1       -0.1328
     26 F           5.1962    1.0357   35.1026 F       1  UNL1       -0.1328
     27 F           4.9230   -1.8537   34.3433 F       1  UNL1       -0.1328
@<TRIPOS>BOND
     1    14    15    1
     2    15    16    1
     3    16    17    1
     4    17    10    1
     5    10    11    2
     6    10    12   am
     7    12     1    1
     8     1     2   ar
     9     2     3   ar
    10     3     4   ar
    11     4     5   ar
    12     5     6   ar
    13     6    23    1
    14    23    24    1
    15    24    25    1
    16    24    26    1
    17    24    27    1
    18     6     7   ar
    19     7     8   ar
    20     8     9   ar
    21    17    18    1
    22    18    19    1
    23    19    20    1
    24    19    21    1
    25    19    22    1
    26    22    15    1
    27     9     1   ar
    28     8     3   ar
    29    12    13    1
@<TRIPOS>MOLECULE
*****
 27 29 0 0 0
SMALL
GASTEIGER

@<TRIPOS>ATOM
      1 C           5.2030   -1.6330   26.2052 C.ar    1  UNL1        0.1655
      2 N           6.6465   -1.8427   26.5550 N.ar    1  UNL1       -0.2239
      3 C           6.7668   -1.8361   28.0501 C.ar    1  UNL1        0.0894
      4 C           7.9462   -1.9971   28.9628 C.ar    1  UNL1        0.0228
      5 C           7.7565   -1.9443   30.4498 C.ar    1  UNL1        0.0388
      6 C           6.3874   -1.7305   31.0241 C.ar    1  UNL1        0.1474
      7 C           5.2080   -1.5695   30.1114 C.ar    1  UNL1        0.0452
      8 C           5.3977   -1.6222   28.6244 C.ar    1  UNL1        0.0527
      9 S           4.4312   -1.4967   27.4842 S.2     1  UNL1       -0.0513
     10 C           4.9291   -2.6629   23.8357 C.2     1  UNL1        0.2270
     11 O           5.7979   -3.8179   24.2373 O.2     1  UNL1       -0.2747
     12 N           4.6316   -1.5705   24.8197 N.am    1  UNL1       -0.2641
     13 H           4.0613   -0.8125   24.5561 H       1  UNL1        0.1567
     14 C           4.3741   -4.7272   19.0996 C.3     1  UNL1        0.0000
     15 C           4.0802   -3.6326   20.0822 C.3     1  UNL1        0.0005
     16 C           4.6516   -3.6951   21.4677 C.3     1  UNL1        0.0091
     17 C           4.3577   -2.6004   22.4502 C.3     1  UNL1        0.0769
     18 C           3.4924   -1.4433   22.0473 C.3     1  UNL1        0.0091
     19 C           2.9210   -1.3808   20.6618 C.3     1  UNL1        0.0005
     20 C           2.3612   -0.1114   21.2320 C.3     1  UNL1        0.0000
     21 C           2.1552   -0.8775   19.4743 C.3     1  UNL1        0.0000
     22 C           3.2149   -2.4754   19.6792 C.3     1  UNL1        0.0000
     23 O           6.1977   -1.6777   32.5112 O.3     1  UNL1       -0.4044
     24 C           5.0985   -2.4692   33.1556 C.3     1  UNL1        0.5753
     25 F           3.9994   -3.2608   33.8000 F       1  UNL1       -0.1328
     26 F           5.8218   -3.7414   32.8266 F       1  UNL1       -0.1328
     27 F           4.3753   -1.1970   33.4846 F       1  UNL1       -0.1328
@<TRIPOS>BOND
     1    14    15    1
     2    15    16    1
     3    16    17    1
     4    17    10    1
     5    10    11    2
     6    10    12   am
     7    12     1    1
     8     1     2   ar
     9     2     3   ar
    10     3     4   ar
    11     4     5   ar
    12     5     6   ar
    13     6    23    1
    14    23    24    1
    15    24    25    1
    16    24    26    1
    17    24    27    1
    18     6     7   ar
    19     7     8   ar
    20     8     9   ar
    21    17    18    1
    22    18    19    1
    23    19    20    1
    24    19    21    1
    25    19    22    1
    26    22    15    1
    27     9     1   ar
    28     8     3   ar
    29    12    13    1
@<TRIPOS>MOLECULE
*****
 27 29 0 0 0
SMALL
GASTEIGER

@<TRIPOS>ATOM
      1 C           5.2680   -0.4476   33.9998 C.ar    1  UNL1        0.1655
      2 N           6.7587   -0.4726   34.1647 N.ar    1  UNL1       -0.2239
      3 C           7.3144   -1.4821   33.2044 C.ar    1  UNL1        0.0894
      4 C           8.7169   -1.9333   32.9226 C.ar    1  UNL1        0.0228
      5 C           8.9721   -2.9834   31.8824 C.ar    1  UNL1        0.0388
      6 C           7.8248   -3.5824   31.1241 C.ar    1  UNL1        0.1474
      7 C           6.4224   -3.1311   31.4059 C.ar    1  UNL1        0.0452
      8 C           6.1672   -2.0810   32.4461 C.ar    1  UNL1        0.0527
      9 S           4.9024   -1.4416   32.9376 S.2     1  UNL1       -0.0513
     10 C           4.3957    0.4937   36.2588 C.2     1  UNL1        0.2270
     11 O           5.4375   -0.2988   36.9913 O.2     1  UNL1       -0.2747
     12 N           4.3109    0.4193   34.7631 N.am    1  UNL1       -0.2641
     13 H           3.6271    0.9394   34.2823 H       1  UNL1        0.1567
     14 C           2.2499    5.1455   37.1286 C.3     1  UNL1        0.0000
     15 C           2.3657    3.6865   37.4569 C.3     1  UNL1        0.0005
     16 C           3.3228    2.8196   36.6937 C.3     1  UNL1        0.0091
     17 C           3.4386    1.3605   37.0220 C.3     1  UNL1        0.0769
     18 C           2.5973    0.7684   38.1136 C.3     1  UNL1        0.0091
     19 C           1.6403    1.6352   38.8769 C.3     1  UNL1        0.0005
     20 C           1.3940    0.3184   39.5517 C.3     1  UNL1        0.0000
     21 C           0.5977    2.0448   39.8745 C.3     1  UNL1        0.0000
     22 C           1.5244    3.0942   38.5486 C.3     1  UNL1        0.0000
     23 O           8.0801   -4.6326   30.0839 O.3     1  UNL1       -0.4044
     24 C           6.9649   -5.0914   29.1918 C.3     1  UNL1        0.5753
     25 F           5.8496   -5.5502   28.2997 F       1  UNL1       -0.1328
     26 F           7.3852   -4.0940   28.1534 F       1  UNL1       -0.1328
     27 F           6.5445   -6.0887   30.2303 F       1  UNL1       -0.1328
@<TRIPOS>BOND
     1    14    15    1
     2    15    16    1
     3    16    17    1
     4    17    10    1
     5    10    11    2
     6    10    12   am
     7    12     1    1
     8     1     2   ar
     9     2     3   ar
    10     3     4   ar
    11     4     5   ar
    12     5     6   ar
    13     6    23    1
    14    23    24    1
    15    24    25    1
    16    24    26    1
    17    24    27    1
    18     6     7   ar
    19     7     8   ar
    20     8     9   ar
    21    17    18    1
    22    18    19    1
    23    19    20    1
    24    19    21    1
    25    19    22    1
    26    22    15    1
    27     9     1   ar
    28     8     3   ar
    29    12    13    1
