@<TRIPOS>MOLECULE
*****
 11 11 0 0 0
SMALL
GASTEIGER

@<TRIPOS>ATOM
      1 C           5.0714  -11.7221   17.9982 C.ar    1  UNL1        0.0578
      2 C           5.6151  -13.0225   18.5113 C.ar    1  UNL1        0.0155
      3 C           5.0277  -14.3195   18.0393 C.ar    1  UNL1        0.0013
      4 C           3.8967  -14.3161   17.0542 C.ar    1  UNL1        0.0001
      5 C           3.3530  -13.0158   16.5410 C.ar    1  UNL1        0.0013
      6 C           3.9403  -11.7188   17.0130 C.ar    1  UNL1        0.0155
      7 N           7.1012  -10.3586   18.8759 N.3     1  UNL1       -0.2565
      8 N           5.6587  -10.4251   18.4701 N.pl3   1  UNL1       -0.2818
      9 H           7.3291   -9.4080   19.1671 H       1  UNL1        0.1404
     10 H           7.6893  -10.6222   18.0853 H       1  UNL1        0.1404
     11 H           5.0975   -9.6174   18.5136 H       1  UNL1        0.1660
@<TRIPOS>BOND
     1     7     8    1
     2     8     1    1
     3     1     2   ar
     4     2     3   ar
     5     3     4   ar
     6     4     5   ar
     7     5     6   ar
     8     6     1   ar
     9     7     9    1
    10     7    10    1
    11     8    11    1
@<TRIPOS>MOLECULE
*****
 11 11 0 0 0
SMALL
GASTEIGER

@<TRIPOS>ATOM
      1 C           6.0170  -11.3487   18.4408 C.ar    1  UNL1        0.0578
      2 C           4.9189  -11.0238   17.4720 C.ar    1  UNL1        0.0155
      3 C           4.0240  -12.1132   16.9597 C.ar    1  UNL1        0.0013
      4 C           4.2273  -13.5275   17.4161 C.ar    1  UNL1        0.0001
      5 C           5.3254  -13.8524   18.3849 C.ar    1  UNL1        0.0013
      6 C           6.2202  -12.7630   18.8972 C.ar    1  UNL1        0.0155
      7 N           6.5613   -8.8221   18.7053 N.3     1  UNL1       -0.2565
      8 N           6.9118  -10.2593   18.9531 N.pl3   1  UNL1       -0.2818
      9 H           7.2740   -8.2218   19.1201 H       1  UNL1        0.1404
     10 H           5.6556   -8.6155   19.1265 H       1  UNL1        0.1404
     11 H           7.7293  -10.4876   19.4520 H       1  UNL1        0.1660
@<TRIPOS>BOND
     1     7     8    1
     2     8     1    1
     3     1     2   ar
     4     2     3   ar
     5     3     4   ar
     6     4     5   ar
     7     5     6   ar
     8     6     1   ar
     9     7     9    1
    10     7    10    1
    11     8    11    1
@<TRIPOS>MOLECULE
*****
 11 11 0 0 0
SMALL
GASTEIGER

@<TRIPOS>ATOM
      1 C           4.5839  -12.8927   17.3641 C.ar    1  UNL1        0.0578
      2 C           5.3454  -13.6771   18.3911 C.ar    1  UNL1        0.0155
      3 C           6.3775  -12.9969   19.2409 C.ar    1  UNL1        0.0013
      4 C           6.6480  -11.5322   19.0637 C.ar    1  UNL1        0.0001
      5 C           5.8865  -10.7478   18.0367 C.ar    1  UNL1        0.0013
      6 C           4.8545  -11.4280   17.1869 C.ar    1  UNL1        0.0155
      7 N           3.3415  -15.0535   16.6312 N.3     1  UNL1       -0.2565
      8 N           3.5519  -13.5730   16.5143 N.pl3   1  UNL1       -0.2818
      9 H           2.6077  -15.3447   15.9853 H       1  UNL1        0.1404
     10 H           3.0651  -15.2834   17.5858 H       1  UNL1        0.1404
     11 H           3.0126  -13.0477   15.8799 H       1  UNL1        0.1660
@<TRIPOS>BOND
     1     7     8    1
     2     8     1    1
     3     1     2   ar
     4     2     3   ar
     5     3     4   ar
     6     4     5   ar
     7     5     6   ar
     8     6     1   ar
     9     7     9    1
    10     7    10    1
    11     8    11    1
@<TRIPOS>MOLECULE
*****
 11 11 0 0 0
SMALL
GASTEIGER

@<TRIPOS>ATOM
      1 C         -11.4233  -19.1083   23.6515 C.ar    1  UNL1        0.0578
      2 C         -12.3394  -17.9617   23.3416 C.ar    1  UNL1        0.0155
      3 C         -12.6041  -17.5773   21.9160 C.ar    1  UNL1        0.0013
      4 C         -11.9526  -18.3394   20.8004 C.ar    1  UNL1        0.0001
      5 C         -11.0365  -19.4860   21.1103 C.ar    1  UNL1        0.0013
      6 C         -10.7718  -19.8704   22.5358 C.ar    1  UNL1        0.0155
      7 N         -10.0932  -20.4989   25.3970 N.3     1  UNL1       -0.2565
      8 N         -11.1586  -19.4927   25.0770 N.pl3   1  UNL1       -0.2818
      9 H         -10.0502  -20.6391   26.4064 H       1  UNL1        0.1404
     10 H          -9.1920  -20.1579   25.0624 H       1  UNL1        0.1404
     11 H         -11.6842  -19.0846   25.8026 H       1  UNL1        0.1660
@<TRIPOS>BOND
     1     7     8    1
     2     8     1    1
     3     1     2   ar
     4     2     3   ar
     5     3     4   ar
     6     4     5   ar
     7     5     6   ar
     8     6     1   ar
     9     7     9    1
    10     7    10    1
    11     8    11    1
@<TRIPOS>MOLECULE
*****
 11 11 0 0 0
SMALL
GASTEIGER

@<TRIPOS>ATOM
      1 C           4.7792  -11.9585   17.5182 C.ar    1  UNL1        0.0578
      2 C           5.7049  -10.8076   17.7798 C.ar    1  UNL1        0.0155
      3 C           6.8991  -10.9925   18.6684 C.ar    1  UNL1        0.0013
      4 C           7.1677  -12.3284   19.2954 C.ar    1  UNL1        0.0001
      5 C           6.2420  -13.4793   19.0339 C.ar    1  UNL1        0.0013
      6 C           5.0478  -13.2944   18.1453 C.ar    1  UNL1        0.0155
      7 N           2.8477  -12.9700   16.1054 N.3     1  UNL1       -0.2565
      8 N           3.5850  -11.7736   16.6297 N.pl3   1  UNL1       -0.2818
      9 H           2.0694  -12.6615   15.5228 H       1  UNL1        0.1404
     10 H           2.4904  -13.5188   16.8875 H       1  UNL1        0.1404
     11 H           3.2850  -10.8669   16.3905 H       1  UNL1        0.1660
@<TRIPOS>BOND
     1     7     8    1
     2     8     1    1
     3     1     2   ar
     4     2     3   ar
     5     3     4   ar
     6     4     5   ar
     7     5     6   ar
     8     6     1   ar
     9     7     9    1
    10     7    10    1
    11     8    11    1
@<TRIPOS>MOLECULE
*****
 11 11 0 0 0
SMALL
GASTEIGER

@<TRIPOS>ATOM
      1 C          -6.9009  -15.1896   24.1836 C.ar    1  UNL1        0.0578
      2 C          -8.2682  -15.2915   24.7920 C.ar    1  UNL1        0.0155
      3 C          -8.4177  -15.5168   26.2675 C.ar    1  UNL1        0.0013
      4 C          -7.1999  -15.6403   27.1345 C.ar    1  UNL1        0.0001
      5 C          -5.8327  -15.5384   26.5261 C.ar    1  UNL1        0.0013
      6 C          -5.6832  -15.3130   25.0507 C.ar    1  UNL1        0.0155
      7 N          -7.9690  -14.8572   21.8387 N.3     1  UNL1       -0.2565
      8 N          -6.7514  -14.9642   22.7082 N.pl3   1  UNL1       -0.2818
      9 H          -7.6836  -14.7057   20.8712 H       1  UNL1        0.1404
     10 H          -8.5418  -14.0731   22.1509 H       1  UNL1        0.1404
     11 H          -5.8542  -14.8866   22.3105 H       1  UNL1        0.1660
@<TRIPOS>BOND
     1     7     8    1
     2     8     1    1
     3     1     2   ar
     4     2     3   ar
     5     3     4   ar
     6     4     5   ar
     7     5     6   ar
     8     6     1   ar
     9     7     9    1
    10     7    10    1
    11     8    11    1
@<TRIPOS>MOLECULE
*****
 11 11 0 0 0
SMALL
GASTEIGER

@<TRIPOS>ATOM
      1 C           1.7341  -14.7984   28.4794 C.ar    1  UNL1        0.0578
      2 C           1.4048  -13.7360   29.4858 C.ar    1  UNL1        0.0155
      3 C           2.3183  -12.5591   29.6602 C.ar    1  UNL1        0.0013
      4 C           3.5612  -12.4447   28.8283 C.ar    1  UNL1        0.0001
      5 C           3.8905  -13.5071   27.8219 C.ar    1  UNL1        0.0013
      6 C           2.9770  -14.6840   27.6475 C.ar    1  UNL1        0.0155
      7 N           1.2352  -17.3272   28.8052 N.3     1  UNL1       -0.2565
      8 N           0.8206  -15.9753   28.3050 N.pl3   1  UNL1       -0.2818
      9 H           0.4994  -18.0044   28.6043 H       1  UNL1        0.1404
     10 H           1.3918  -17.2839   29.8122 H       1  UNL1        0.1404
     11 H          -0.0512  -15.8603   27.8623 H       1  UNL1        0.1660
@<TRIPOS>BOND
     1     7     8    1
     2     8     1    1
     3     1     2   ar
     4     2     3   ar
     5     3     4   ar
     6     4     5   ar
     7     5     6   ar
     8     6     1   ar
     9     7     9    1
    10     7    10    1
    11     8    11    1
@<TRIPOS>MOLECULE
*****
 11 11 0 0 0
SMALL
GASTEIGER

@<TRIPOS>ATOM
      1 C           3.6640  -12.3054   27.9031 C.ar    1  UNL1        0.0578
      2 C           3.5753  -13.6000   27.1507 C.ar    1  UNL1        0.0155
      3 C           2.6869  -14.6996   27.6523 C.ar    1  UNL1        0.0013
      4 C           1.8872  -14.5047   28.9063 C.ar    1  UNL1        0.0001
      5 C           1.9759  -13.2101   29.6587 C.ar    1  UNL1        0.0013
      6 C           2.8643  -12.1105   29.1571 C.ar    1  UNL1        0.0155
      7 N           3.9912  -10.1337   26.5151 N.3     1  UNL1       -0.2565
      8 N           4.5524  -11.2058   27.4015 N.pl3   1  UNL1       -0.2818
      9 H           4.7294   -9.4735   26.2710 H       1  UNL1        0.1404
     10 H           3.2446   -9.6424   27.0066 H       1  UNL1        0.1404
     11 H           5.5037  -11.1877   27.6541 H       1  UNL1        0.1660
@<TRIPOS>BOND
     1     7     8    1
     2     8     1    1
     3     1     2   ar
     4     2     3   ar
     5     3     4   ar
     6     4     5   ar
     7     5     6   ar
     8     6     1   ar
     9     7     9    1
    10     7    10    1
    11     8    11    1
@<TRIPOS>MOLECULE
*****
 11 11 0 0 0
SMALL
GASTEIGER

@<TRIPOS>ATOM
      1 C         -13.2278  -18.1918   23.9587 C.ar    1  UNL1        0.0578
      2 C         -11.9555  -18.7517   24.5224 C.ar    1  UNL1        0.0155
      3 C         -10.7166  -18.7959   23.6779 C.ar    1  UNL1        0.0013
      4 C         -10.7499  -18.2802   22.2698 C.ar    1  UNL1        0.0001
      5 C         -12.0222  -17.7203   21.7061 C.ar    1  UNL1        0.0013
      6 C         -13.2611  -17.6761   22.5505 C.ar    1  UNL1        0.0155
      7 N         -14.4292  -18.6483   26.2166 N.3     1  UNL1       -0.2565
      8 N         -14.4667  -18.1476   24.8031 N.pl3   1  UNL1       -0.2818
      9 H         -15.3518  -18.5437   26.6389 H       1  UNL1        0.1404
     10 H         -13.7478  -18.1088   26.7504 H       1  UNL1        0.1404
     11 H         -15.3045  -17.7899   24.4296 H       1  UNL1        0.1660
@<TRIPOS>BOND
     1     7     8    1
     2     8     1    1
     3     1     2   ar
     4     2     3   ar
     5     3     4   ar
     6     4     5   ar
     7     5     6   ar
     8     6     1   ar
     9     7     9    1
    10     7    10    1
    11     8    11    1
