@<TRIPOS>MOLECULE
*****
 33 37 0 0 0
SMALL
GASTEIGER

@<TRIPOS>ATOM
      1 N          -8.0012  -19.3874   20.0523 N.3     1  UNL1       -0.2724
      2 C          -7.6897  -20.7158   19.4294 C.3     1  UNL1        0.0724
      3 C          -6.2495  -21.0311   19.7056 C.3     1  UNL1        0.0215
      4 C          -4.8115  -21.0704   20.1308 C.3     1  UNL1        0.0073
      5 C          -5.6708  -19.8975   20.4994 C.3     1  UNL1        0.0371
      6 C          -6.7535  -18.8816   20.7137 C.3     1  UNL1        0.0762
      7 C          -4.6028  -19.1465   21.2378 C.ar    1  UNL1        0.0060
      8 C          -4.7564  -18.8722   22.7045 C.ar    1  UNL1       -0.0020
      9 C          -3.6883  -18.1212   23.4429 C.ar    1  UNL1       -0.0002
     10 C          -2.4666  -17.6446   22.7147 C.ar    1  UNL1        0.0061
     11 C          -2.3130  -17.9189   21.2479 C.ar    1  UNL1        0.0985
     12 C          -3.3811  -18.6699   20.5095 C.ar    1  UNL1        0.1400
     13 F          -3.2275  -18.9442   19.0429 F       1  UNL1       -0.2046
     14 C          -1.0913  -17.4423   20.5196 C.3     1  UNL1        0.4207
     15 F           0.1303  -16.9657   19.7914 F       1  UNL1       -0.1658
     16 F          -0.8399  -18.8372   20.0285 F       1  UNL1       -0.1658
     17 F          -1.3428  -16.0475   21.0108 F       1  UNL1       -0.1658
     18 C          -9.3276  -18.6875   20.0197 C.3     1  UNL1        0.0730
     19 C         -10.5130  -19.2946   20.7097 C.3     1  UNL1        0.0294
     20 C         -11.7627  -18.4878   20.9030 C.3     1  UNL1        0.0666
     21 S         -12.0450  -17.8487   22.2304 S.3     1  UNL1       -0.0756
     22 C          -8.9221  -16.9234   24.3414 C.ar    1  UNL1        0.2029
     23 N          -9.5699  -17.9536   25.2183 N.ar    1  UNL1       -0.1250
     24 N         -10.8185  -18.4256   24.5343 N.ar    1  UNL1       -0.1220
     25 C         -10.9425  -17.6871   23.2346 C.ar    1  UNL1        0.1933
     26 N          -9.7704  -16.7587   23.1154 N.ar    1  UNL1       -0.2860
     27 C          -9.4951  -15.8288   21.9710 C.3     1  UNL1        0.1341
     28 C          -8.1525  -15.4858   27.1682 C.3     1  UNL1        0.0556
     29 C          -7.2957  -15.5264   25.9376 C.ar    1  UNL1        0.1001
     30 N          -5.9346  -14.9132   25.7904 N.ar    1  UNL1       -0.2085
     31 C          -5.4472  -15.1951   24.4001 C.ar    1  UNL1        0.2849
     32 O          -6.5069  -15.9824   23.6881 O.2     1  UNL1       -0.4283
     33 C          -7.6494  -16.1871   24.6384 C.ar    1  UNL1        0.1964
@<TRIPOS>BOND
     1    28    29    1
     2    29    30   ar
     3    30    31   ar
     4    31    32   ar
     5    32    33   ar
     6    33    22    1
     7    22    23   ar
     8    23    24   ar
     9    24    25   ar
    10    25    21    1
    11    21    20    1
    12    20    19    1
    13    19    18    1
    14    18     1    1
    15     1     2    1
    16     2     3    1
    17     3     4    1
    18     4     5    1
    19     5     7    1
    20     7     8   ar
    21     8     9   ar
    22     9    10   ar
    23    10    11   ar
    24    11    14    1
    25    14    15    1
    26    14    16    1
    27    14    17    1
    28    11    12   ar
    29    12    13    1
    30     5     6    1
    31    25    26   ar
    32    26    27    1
    33    33    29   ar
    34    26    22   ar
    35     6     1    1
    36     5     3    1
    37    12     7   ar
@<TRIPOS>MOLECULE
*****
 33 37 0 0 0
SMALL
GASTEIGER

@<TRIPOS>ATOM
      1 N          -7.0642  -19.7373   20.1077 N.3     1  UNL1       -0.2724
      2 C          -7.7255  -20.5021   18.9997 C.3     1  UNL1        0.0724
      3 C          -9.1806  -20.1377   18.9890 C.3     1  UNL1        0.0215
      4 C         -10.5575  -19.5894   19.2201 C.3     1  UNL1        0.0073
      5 C          -9.4185  -19.1476   20.0904 C.3     1  UNL1        0.0371
      6 C          -8.1105  -18.9002   20.7818 C.3     1  UNL1        0.0762
      7 C         -10.2267  -18.2181   20.9465 C.ar    1  UNL1        0.0060
      8 C         -10.2789  -16.7546   20.6222 C.ar    1  UNL1       -0.0020
      9 C         -11.0871  -15.8250   21.4783 C.ar    1  UNL1       -0.0002
     10 C         -11.8431  -16.3591   22.6587 C.ar    1  UNL1        0.0061
     11 C         -11.7908  -17.8227   22.9830 C.ar    1  UNL1        0.0985
     12 C         -10.9826  -18.7522   22.1269 C.ar    1  UNL1        0.1400
     13 F         -10.9304  -20.2158   22.4512 F       1  UNL1       -0.2046
     14 C         -12.5468  -18.3568   24.1633 C.3     1  UNL1        0.4207
     15 F         -13.3027  -18.8909   25.3437 F       1  UNL1       -0.1658
     16 F         -11.2518  -18.6250   24.8713 F       1  UNL1       -0.1658
     17 F         -13.8417  -18.0887   23.4553 F       1  UNL1       -0.1658
     18 C          -5.6116  -19.7988   20.4768 C.3     1  UNL1        0.0730
     19 C          -4.6121  -18.9667   19.7295 C.3     1  UNL1        0.0294
     20 C          -3.1456  -19.2472   19.8732 C.3     1  UNL1        0.0666
     21 S          -2.3445  -18.5331   20.9213 S.3     1  UNL1       -0.0756
     22 C          -4.3082  -16.2001   23.3226 C.ar    1  UNL1        0.2029
     23 N          -3.5315  -15.2004   22.5180 N.ar    1  UNL1       -0.1250
     24 N          -2.7014  -15.9527   21.5206 N.ar    1  UNL1       -0.1220
     25 C          -2.9650  -17.4173   21.7087 C.ar    1  UNL1        0.1933
     26 N          -3.9581  -17.5701   22.8224 N.ar    1  UNL1       -0.2860
     27 C          -4.5050  -18.8658   23.3443 C.3     1  UNL1        0.1341
     28 C          -7.5456  -15.9064   23.0357 C.3     1  UNL1        0.0556
     29 C          -6.7547  -15.7499   24.3007 C.ar    1  UNL1        0.1001
     30 N          -7.3131  -15.4310   25.6558 N.ar    1  UNL1       -0.2085
     31 C          -6.1702  -15.3689   26.6252 C.ar    1  UNL1        0.2849
     32 O          -4.9054  -15.6494   25.8692 O.2     1  UNL1       -0.4283
     33 C          -5.2667  -15.8849   24.4325 C.ar    1  UNL1        0.1964
@<TRIPOS>BOND
     1    28    29    1
     2    29    30   ar
     3    30    31   ar
     4    31    32   ar
     5    32    33   ar
     6    33    22    1
     7    22    23   ar
     8    23    24   ar
     9    24    25   ar
    10    25    21    1
    11    21    20    1
    12    20    19    1
    13    19    18    1
    14    18     1    1
    15     1     2    1
    16     2     3    1
    17     3     4    1
    18     4     5    1
    19     5     7    1
    20     7     8   ar
    21     8     9   ar
    22     9    10   ar
    23    10    11   ar
    24    11    14    1
    25    14    15    1
    26    14    16    1
    27    14    17    1
    28    11    12   ar
    29    12    13    1
    30     5     6    1
    31    25    26   ar
    32    26    27    1
    33    33    29   ar
    34    26    22   ar
    35     6     1    1
    36     5     3    1
    37    12     7   ar
@<TRIPOS>MOLECULE
*****
 33 37 0 0 0
SMALL
GASTEIGER

@<TRIPOS>ATOM
      1 N          -4.2023  -18.8087   19.5087 N.3     1  UNL1       -0.2724
      2 C          -3.7057  -20.1895   19.8198 C.3     1  UNL1        0.0724
      3 C          -4.8882  -21.0353   20.1889 C.3     1  UNL1        0.0215
      4 C          -6.2334  -21.6178   20.5068 C.3     1  UNL1        0.0073
      5 C          -6.1158  -20.1772   20.1059 C.3     1  UNL1        0.0371
      6 C          -5.6918  -18.8011   19.6855 C.3     1  UNL1        0.0762
      7 C          -7.5807  -19.8685   20.1989 C.ar    1  UNL1        0.0060
      8 C          -8.4104  -19.7860   18.9520 C.ar    1  UNL1       -0.0020
      9 C          -9.8754  -19.4772   19.0449 C.ar    1  UNL1       -0.0002
     10 C         -10.5106  -19.2509   20.3848 C.ar    1  UNL1        0.0061
     11 C          -9.6808  -19.3334   21.6318 C.ar    1  UNL1        0.0985
     12 C          -8.2159  -19.6421   21.5388 C.ar    1  UNL1        0.1400
     13 F          -7.3862  -19.7246   22.7857 F       1  UNL1       -0.2046
     14 C         -10.3160  -19.1071   22.9717 C.3     1  UNL1        0.4207
     15 F         -10.9512  -18.8808   24.3115 F       1  UNL1       -0.1658
     16 F         -10.6686  -17.7061   22.5679 F       1  UNL1       -0.1658
     17 F          -9.9635  -20.5081   23.3754 F       1  UNL1       -0.1658
     18 C          -3.3578  -17.6406   19.0937 C.3     1  UNL1        0.0730
     19 C          -1.8659  -17.7803   19.0257 C.3     1  UNL1        0.0294
     20 C          -1.0329  -17.5336   20.2486 C.3     1  UNL1        0.0666
     21 S          -1.6076  -17.7862   21.6110 S.3     1  UNL1       -0.0756
     22 C          -4.7240  -16.1179   23.2140 C.ar    1  UNL1        0.2029
     23 N          -3.9668  -14.9157   22.7329 N.ar    1  UNL1       -0.1250
     24 N          -2.7073  -15.3943   22.0739 N.ar    1  UNL1       -0.1220
     25 C          -2.6860  -16.8923   22.1476 C.ar    1  UNL1        0.1933
     26 N          -3.9324  -17.3395   22.8522 N.ar    1  UNL1       -0.2860
     27 C          -4.3192  -18.7591   23.1439 C.3     1  UNL1        0.1341
     28 C          -5.2603  -14.9533   26.2150 C.3     1  UNL1        0.0556
     29 C          -6.2880  -15.5660   25.3102 C.ar    1  UNL1        0.1001
     30 N          -7.7426  -15.7510   25.6262 N.ar    1  UNL1       -0.2085
     31 C          -8.3951  -16.4006   24.4420 C.ar    1  UNL1        0.2849
     32 O          -7.3438  -16.6171   23.3943 O.2     1  UNL1       -0.4283
     33 C          -6.0415  -16.1013   23.9309 C.ar    1  UNL1        0.1964
@<TRIPOS>BOND
     1    28    29    1
     2    29    30   ar
     3    30    31   ar
     4    31    32   ar
     5    32    33   ar
     6    33    22    1
     7    22    23   ar
     8    23    24   ar
     9    24    25   ar
    10    25    21    1
    11    21    20    1
    12    20    19    1
    13    19    18    1
    14    18     1    1
    15     1     2    1
    16     2     3    1
    17     3     4    1
    18     4     5    1
    19     5     7    1
    20     7     8   ar
    21     8     9   ar
    22     9    10   ar
    23    10    11   ar
    24    11    14    1
    25    14    15    1
    26    14    16    1
    27    14    17    1
    28    11    12   ar
    29    12    13    1
    30     5     6    1
    31    25    26   ar
    32    26    27    1
    33    33    29   ar
    34    26    22   ar
    35     6     1    1
    36     5     3    1
    37    12     7   ar
@<TRIPOS>MOLECULE
*****
 33 37 0 0 0
SMALL
GASTEIGER

@<TRIPOS>ATOM
      1 N          -9.5915  -17.4994   24.6500 N.3     1  UNL1       -0.2724
      2 C         -10.5697  -18.5025   25.1856 C.3     1  UNL1        0.0724
      3 C         -10.7728  -19.5569   24.1383 C.3     1  UNL1        0.0215
      4 C         -10.7713  -20.4402   22.9259 C.3     1  UNL1        0.0073
      5 C          -9.9201  -19.2055   22.9553 C.3     1  UNL1        0.0371
      6 C          -9.1900  -17.9339   23.2716 C.3     1  UNL1        0.0762
      7 C          -9.3406  -19.3818   21.5830 C.ar    1  UNL1        0.0060
      8 C         -10.2097  -19.2039   20.3735 C.ar    1  UNL1       -0.0020
      9 C          -9.6303  -19.3802   19.0011 C.ar    1  UNL1       -0.0002
     10 C          -8.1818  -19.7344   18.8384 C.ar    1  UNL1        0.0061
     11 C          -7.3127  -19.9122   20.0481 C.ar    1  UNL1        0.0985
     12 C          -7.8921  -19.7359   21.4203 C.ar    1  UNL1        0.1400
     13 F          -7.0231  -19.9138   22.6299 F       1  UNL1       -0.2046
     14 C          -5.8642  -20.2664   19.8854 C.3     1  UNL1        0.4207
     15 F          -4.4158  -20.6206   19.7227 F       1  UNL1       -0.1658
     16 F          -6.1879  -21.7083   20.1425 F       1  UNL1       -0.1658
     17 F          -5.5405  -18.8245   19.6282 F       1  UNL1       -0.1658
     18 C          -9.1009  -16.2766   25.3670 C.3     1  UNL1        0.0730
     19 C          -8.5857  -16.3866   26.7714 C.3     1  UNL1        0.0294
     20 C          -7.5546  -15.4181   27.2701 C.3     1  UNL1        0.0666
     21 S          -6.1034  -15.6445   26.9651 S.3     1  UNL1       -0.0756
     22 C          -4.3580  -16.0213   23.5189 C.ar    1  UNL1        0.2029
     23 N          -5.3781  -14.9649   23.2132 N.ar    1  UNL1       -0.1250
     24 N          -6.1560  -14.6952   24.4669 N.ar    1  UNL1       -0.1220
     25 C          -5.6168  -15.5849   25.5475 C.ar    1  UNL1        0.1933
     26 N          -4.5055  -16.4045   24.9616 N.ar    1  UNL1       -0.2860
     27 C          -3.6858  -17.4276   25.6905 C.3     1  UNL1        0.1341
     28 C          -4.0540  -19.1711   22.7212 C.3     1  UNL1        0.0556
     29 C          -3.2250  -18.0417   22.1850 C.ar    1  UNL1        0.1001
     30 N          -2.1107  -18.1620   21.1881 N.ar    1  UNL1       -0.2085
     31 C          -1.5618  -16.7885   20.9386 C.ar    1  UNL1        0.2849
     32 O          -2.3367  -15.8195   21.7814 O.2     1  UNL1       -0.4283
     33 C          -3.3647  -16.5941   22.5517 C.ar    1  UNL1        0.1964
@<TRIPOS>BOND
     1    28    29    1
     2    29    30   ar
     3    30    31   ar
     4    31    32   ar
     5    32    33   ar
     6    33    22    1
     7    22    23   ar
     8    23    24   ar
     9    24    25   ar
    10    25    21    1
    11    21    20    1
    12    20    19    1
    13    19    18    1
    14    18     1    1
    15     1     2    1
    16     2     3    1
    17     3     4    1
    18     4     5    1
    19     5     7    1
    20     7     8   ar
    21     8     9   ar
    22     9    10   ar
    23    10    11   ar
    24    11    14    1
    25    14    15    1
    26    14    16    1
    27    14    17    1
    28    11    12   ar
    29    12    13    1
    30     5     6    1
    31    25    26   ar
    32    26    27    1
    33    33    29   ar
    34    26    22   ar
    35     6     1    1
    36     5     3    1
    37    12     7   ar
@<TRIPOS>MOLECULE
*****
 33 37 0 0 0
SMALL
GASTEIGER

@<TRIPOS>ATOM
      1 N          -9.2026  -17.1300   24.7476 N.3     1  UNL1       -0.2724
      2 C          -9.9666  -18.1675   25.5158 C.3     1  UNL1        0.0724
      3 C         -10.1613  -19.3562   24.6219 C.3     1  UNL1        0.0215
      4 C         -10.1979  -20.3724   23.5193 C.3     1  UNL1        0.0073
      5 C          -9.5177  -19.0535   23.3013 C.3     1  UNL1        0.0371
      6 C          -8.9252  -17.6776   23.3790 C.3     1  UNL1        0.0762
      7 C          -9.0980  -19.3253   21.8871 C.ar    1  UNL1        0.0060
      8 C         -10.1091  -19.2676   20.7805 C.ar    1  UNL1       -0.0020
      9 C          -9.6894  -19.5394   19.3662 C.ar    1  UNL1       -0.0002
     10 C          -8.2587  -19.8689   19.0586 C.ar    1  UNL1        0.0061
     11 C          -7.2477  -19.9266   20.1653 C.ar    1  UNL1        0.0985
     12 C          -7.6673  -19.6548   21.5795 C.ar    1  UNL1        0.1400
     13 F          -6.6563  -19.7124   22.6860 F       1  UNL1       -0.2046
     14 C          -5.8170  -20.2561   19.8576 C.3     1  UNL1        0.4207
     15 F          -4.3864  -20.5855   19.5500 F       1  UNL1       -0.1658
     16 F          -5.5120  -18.7947   19.7110 F       1  UNL1       -0.1658
     17 F          -6.1220  -21.7174   20.0043 F       1  UNL1       -0.1658
     18 C          -8.7888  -15.7817   25.2584 C.3     1  UNL1        0.0730
     19 C          -7.4401  -15.6003   25.8893 C.3     1  UNL1        0.0294
     20 C          -6.2357  -15.3591   25.0284 C.3     1  UNL1        0.0666
     21 S          -5.4767  -16.5205   24.4581 S.3     1  UNL1       -0.0756
     22 C          -2.6965  -16.6733   21.7540 C.ar    1  UNL1        0.2029
     23 N          -2.9206  -15.1936   21.8561 N.ar    1  UNL1       -0.1250
     24 N          -3.9893  -14.9563   22.8814 N.ar    1  UNL1       -0.1220
     25 C          -4.4257  -16.2893   23.4131 C.ar    1  UNL1        0.1933
     26 N          -3.6267  -17.3504   22.7163 N.ar    1  UNL1       -0.2860
     27 C          -3.7383  -18.8291   22.9422 C.3     1  UNL1        0.1341
     28 C          -3.0152  -17.0716   18.5307 C.3     1  UNL1        0.0556
     29 C          -1.8610  -17.5390   19.3671 C.ar    1  UNL1        0.1001
     30 N          -0.6507  -18.2715   18.8686 N.ar    1  UNL1       -0.2085
     31 C           0.2439  -18.5411   20.0421 C.ar    1  UNL1        0.2849
     32 O          -0.4136  -17.9753   21.2657 O.2     1  UNL1       -0.4283
     33 C          -1.7145  -17.3559   20.8486 C.ar    1  UNL1        0.1964
@<TRIPOS>BOND
     1    28    29    1
     2    29    30   ar
     3    30    31   ar
     4    31    32   ar
     5    32    33   ar
     6    33    22    1
     7    22    23   ar
     8    23    24   ar
     9    24    25   ar
    10    25    21    1
    11    21    20    1
    12    20    19    1
    13    19    18    1
    14    18     1    1
    15     1     2    1
    16     2     3    1
    17     3     4    1
    18     4     5    1
    19     5     7    1
    20     7     8   ar
    21     8     9   ar
    22     9    10   ar
    23    10    11   ar
    24    11    14    1
    25    14    15    1
    26    14    16    1
    27    14    17    1
    28    11    12   ar
    29    12    13    1
    30     5     6    1
    31    25    26   ar
    32    26    27    1
    33    33    29   ar
    34    26    22   ar
    35     6     1    1
    36     5     3    1
    37    12     7   ar
@<TRIPOS>MOLECULE
*****
 33 37 0 0 0
SMALL
GASTEIGER

@<TRIPOS>ATOM
      1 N          -6.1310  -19.6637   20.5527 N.3     1  UNL1       -0.2724
      2 C          -6.7254  -19.9033   19.1965 C.3     1  UNL1        0.0724
      3 C          -8.2172  -19.8080   19.3208 C.3     1  UNL1        0.0215
      4 C          -9.6472  -19.6561   19.7474 C.3     1  UNL1        0.0073
      5 C          -8.5448  -19.5096   20.7539 C.3     1  UNL1        0.0371
      6 C          -7.2554  -19.4204   21.5152 C.3     1  UNL1        0.0762
      7 C          -9.4387  -19.2356   21.9268 C.ar    1  UNL1        0.0060
      8 C          -9.3515  -20.0951   23.1531 C.ar    1  UNL1       -0.0020
      9 C         -10.2455  -19.8211   24.3261 C.ar    1  UNL1       -0.0002
     10 C         -11.2267  -18.6878   24.2728 C.ar    1  UNL1        0.0061
     11 C         -11.3139  -17.8284   23.0464 C.ar    1  UNL1        0.0985
     12 C         -10.4199  -18.1023   21.8735 C.ar    1  UNL1        0.1400
     13 F         -10.5072  -17.2429   20.6472 F       1  UNL1       -0.2046
     14 C         -12.2951  -16.6950   22.9930 C.3     1  UNL1        0.4207
     15 F         -13.2762  -15.5617   22.9397 F       1  UNL1       -0.1658
     16 F         -11.1649  -15.7125   23.0789 F       1  UNL1       -0.1658
     17 F         -13.4253  -17.6775   22.9071 F       1  UNL1       -0.1658
     18 C          -4.6688  -19.6668   20.8876 C.3     1  UNL1        0.0730
     19 C          -3.7086  -18.8629   20.0620 C.3     1  UNL1        0.0294
     20 C          -2.2521  -18.8358   20.4198 C.3     1  UNL1        0.0666
     21 S          -1.7669  -17.9402   21.5210 S.3     1  UNL1       -0.0756
     22 C          -4.3777  -15.9233   23.5656 C.ar    1  UNL1        0.2029
     23 N          -3.8829  -14.8752   22.6134 N.ar    1  UNL1       -0.1250
     24 N          -2.8447  -15.5032   21.7316 N.ar    1  UNL1       -0.1220
     25 C          -2.6978  -16.9394   22.1388 C.ar    1  UNL1        0.1933
     26 N          -3.6453  -17.1989   23.2723 N.ar    1  UNL1       -0.2860
     27 C          -3.8282  -18.5050   23.9871 C.3     1  UNL1        0.1341
     28 C          -7.6072  -15.9083   23.0966 C.3     1  UNL1        0.0556
     29 C          -6.9060  -15.7226   24.4096 C.ar    1  UNL1        0.1001
     30 N          -7.5663  -15.4975   25.7375 N.ar    1  UNL1       -0.2085
     31 C          -6.4899  -15.3653   26.7738 C.ar    1  UNL1        0.2849
     32 O          -5.1646  -15.5086   26.0864 O.2     1  UNL1       -0.4283
     33 C          -5.4217  -15.7295   24.6252 C.ar    1  UNL1        0.1964
@<TRIPOS>BOND
     1    28    29    1
     2    29    30   ar
     3    30    31   ar
     4    31    32   ar
     5    32    33   ar
     6    33    22    1
     7    22    23   ar
     8    23    24   ar
     9    24    25   ar
    10    25    21    1
    11    21    20    1
    12    20    19    1
    13    19    18    1
    14    18     1    1
    15     1     2    1
    16     2     3    1
    17     3     4    1
    18     4     5    1
    19     5     7    1
    20     7     8   ar
    21     8     9   ar
    22     9    10   ar
    23    10    11   ar
    24    11    14    1
    25    14    15    1
    26    14    16    1
    27    14    17    1
    28    11    12   ar
    29    12    13    1
    30     5     6    1
    31    25    26   ar
    32    26    27    1
    33    33    29   ar
    34    26    22   ar
    35     6     1    1
    36     5     3    1
    37    12     7   ar
@<TRIPOS>MOLECULE
*****
 33 37 0 0 0
SMALL
GASTEIGER

@<TRIPOS>ATOM
      1 N          -3.6796  -18.2850   22.4264 N.3     1  UNL1       -0.2724
      2 C          -2.7757  -17.0882   22.4516 C.3     1  UNL1        0.0724
      3 C          -3.5647  -15.9221   22.9692 C.3     1  UNL1        0.0215
      4 C          -4.5874  -14.9645   23.5049 C.3     1  UNL1        0.0073
      5 C          -4.9563  -16.3983   23.2639 C.3     1  UNL1        0.0371
      6 C          -5.0273  -17.8586   22.9284 C.3     1  UNL1        0.0762
      7 C          -6.3810  -16.2717   23.7155 C.ar    1  UNL1        0.0060
      8 C          -7.4834  -16.1786   22.7025 C.ar    1  UNL1       -0.0020
      9 C          -8.9083  -16.0520   23.1542 C.ar    1  UNL1       -0.0002
     10 C          -9.2307  -16.0185   24.6187 C.ar    1  UNL1        0.0061
     11 C          -8.1282  -16.1117   25.6317 C.ar    1  UNL1        0.0985
     12 C          -6.7034  -16.2383   25.1801 C.ar    1  UNL1        0.1400
     13 F          -5.6011  -16.3314   26.1930 F       1  UNL1       -0.2046
     14 C          -8.4506  -16.0782   27.0963 C.3     1  UNL1        0.4207
     15 F          -8.7730  -16.0447   28.5608 F       1  UNL1       -0.1658
     16 F          -9.0184  -17.4635   27.0030 F       1  UNL1       -0.1658
     17 F          -7.8828  -14.6929   27.1896 F       1  UNL1       -0.1658
     18 C          -3.3021  -19.6657   21.9779 C.3     1  UNL1        0.0730
     19 C          -3.5863  -20.1012   20.5709 C.3     1  UNL1        0.0294
     20 C          -4.9273  -19.8270   19.9573 C.3     1  UNL1        0.0666
     21 S          -6.1589  -20.4619   20.5320 S.3     1  UNL1       -0.0756
     22 C          -9.6689  -18.8299   20.8177 C.ar    1  UNL1        0.2029
     23 N          -9.4330  -18.7529   19.3383 N.ar    1  UNL1       -0.1250
     24 N          -8.0895  -19.3548   19.0513 N.ar    1  UNL1       -0.1220
     25 C          -7.4950  -19.8039   20.3532 C.ar    1  UNL1        0.1933
     26 N          -8.4712  -19.4795   21.4448 N.ar    1  UNL1       -0.2860
     27 C          -8.2827  -19.7561   22.9070 C.3     1  UNL1        0.1341
     28 C         -11.4579  -16.2189   20.0228 C.3     1  UNL1        0.0556
     29 C         -11.7108  -17.1428   21.1772 C.ar    1  UNL1        0.1001
     30 N         -12.8304  -17.0286   22.1688 N.ar    1  UNL1       -0.2085
     31 C         -12.7001  -18.1582   23.1471 C.ar    1  UNL1        0.2849
     32 O         -11.5000  -18.9704   22.7600 O.2     1  UNL1       -0.4283
     33 C         -10.8886  -18.3429   21.5425 C.ar    1  UNL1        0.1964
@<TRIPOS>BOND
     1    28    29    1
     2    29    30   ar
     3    30    31   ar
     4    31    32   ar
     5    32    33   ar
     6    33    22    1
     7    22    23   ar
     8    23    24   ar
     9    24    25   ar
    10    25    21    1
    11    21    20    1
    12    20    19    1
    13    19    18    1
    14    18     1    1
    15     1     2    1
    16     2     3    1
    17     3     4    1
    18     4     5    1
    19     5     7    1
    20     7     8   ar
    21     8     9   ar
    22     9    10   ar
    23    10    11   ar
    24    11    14    1
    25    14    15    1
    26    14    16    1
    27    14    17    1
    28    11    12   ar
    29    12    13    1
    30     5     6    1
    31    25    26   ar
    32    26    27    1
    33    33    29   ar
    34    26    22   ar
    35     6     1    1
    36     5     3    1
    37    12     7   ar
@<TRIPOS>MOLECULE
*****
 33 37 0 0 0
SMALL
GASTEIGER

@<TRIPOS>ATOM
      1 N          -9.0245  -16.6134   25.6691 N.3     1  UNL1       -0.2724
      2 C          -9.3399  -17.8676   26.4290 C.3     1  UNL1        0.0724
      3 C         -10.0129  -18.8228   25.4884 C.3     1  UNL1        0.0215
      4 C         -10.6477  -19.5473   24.3387 C.3     1  UNL1        0.0073
      5 C         -10.1135  -18.1589   24.1471 C.3     1  UNL1        0.0371
      6 C          -9.5026  -16.7935   24.2588 C.3     1  UNL1        0.0762
      7 C         -10.4799  -18.0486   22.6967 C.ar    1  UNL1        0.0060
      8 C         -11.5799  -17.1226   22.2694 C.ar    1  UNL1       -0.0020
      9 C         -11.9464  -17.0123   20.8190 C.ar    1  UNL1       -0.0002
     10 C         -11.2128  -17.8280   19.7960 C.ar    1  UNL1        0.0061
     11 C         -10.1127  -18.7540   20.2234 C.ar    1  UNL1        0.0985
     12 C          -9.7463  -18.8643   21.6737 C.ar    1  UNL1        0.1400
     13 F          -8.6463  -19.7902   22.1010 F       1  UNL1       -0.2046
     14 C          -9.3792  -19.5697   19.2003 C.3     1  UNL1        0.4207
     15 F          -8.6456  -20.3853   18.1774 F       1  UNL1       -0.1658
     16 F          -8.0717  -19.0691   19.7388 F       1  UNL1       -0.1658
     17 F         -10.6867  -20.0703   18.6619 F       1  UNL1       -0.1658
     18 C          -8.3495  -15.3935   26.2223 C.3     1  UNL1        0.0730
     19 C          -6.9258  -15.4703   26.6882 C.3     1  UNL1        0.0294
     20 C          -5.8303  -14.8762   25.8533 C.3     1  UNL1        0.0666
     21 S          -4.8701  -15.7720   25.1283 S.3     1  UNL1       -0.0756
     22 C          -5.4110  -18.1924   22.1426 C.ar    1  UNL1        0.2029
     23 N          -6.6965  -17.4195   22.1258 N.ar    1  UNL1       -0.1250
     24 N          -6.6503  -16.4188   23.2421 N.ar    1  UNL1       -0.1220
     25 C          -5.3363  -16.5731   23.9489 C.ar    1  UNL1        0.1933
     26 N          -4.5704  -17.6693   23.2694 N.ar    1  UNL1       -0.2860
     27 C          -3.2038  -18.1568   23.6499 C.3     1  UNL1        0.1341
     28 C          -2.9367  -18.1316   20.0157 C.3     1  UNL1        0.0556
     29 C          -3.8954  -19.2669   20.2209 C.ar    1  UNL1        0.1001
     30 N          -3.8850  -20.5736   19.4843 N.ar    1  UNL1       -0.2085
     31 C          -5.0159  -21.4091   20.0068 C.ar    1  UNL1        0.2849
     32 O          -5.7252  -20.6188   21.0661 O.2     1  UNL1       -0.4283
     33 C          -5.0326  -19.2949   21.1984 C.ar    1  UNL1        0.1964
@<TRIPOS>BOND
     1    28    29    1
     2    29    30   ar
     3    30    31   ar
     4    31    32   ar
     5    32    33   ar
     6    33    22    1
     7    22    23   ar
     8    23    24   ar
     9    24    25   ar
    10    25    21    1
    11    21    20    1
    12    20    19    1
    13    19    18    1
    14    18     1    1
    15     1     2    1
    16     2     3    1
    17     3     4    1
    18     4     5    1
    19     5     7    1
    20     7     8   ar
    21     8     9   ar
    22     9    10   ar
    23    10    11   ar
    24    11    14    1
    25    14    15    1
    26    14    16    1
    27    14    17    1
    28    11    12   ar
    29    12    13    1
    30     5     6    1
    31    25    26   ar
    32    26    27    1
    33    33    29   ar
    34    26    22   ar
    35     6     1    1
    36     5     3    1
    37    12     7   ar
@<TRIPOS>MOLECULE
*****
 33 37 0 0 0
SMALL
GASTEIGER

@<TRIPOS>ATOM
      1 N          -9.0096  -17.0484   24.4723 N.3     1  UNL1       -0.2724
      2 C         -10.0193  -17.9379   25.1352 C.3     1  UNL1        0.0724
      3 C         -10.0358  -19.2468   24.4026 C.3     1  UNL1        0.0215
      4 C          -9.8323  -20.4209   23.4917 C.3     1  UNL1        0.0073
      5 C          -9.0363  -19.1661   23.2870 C.3     1  UNL1        0.0371
      6 C          -8.4021  -17.8075   23.3301 C.3     1  UNL1        0.0762
      7 C          -8.2624  -19.6629   22.1020 C.ar    1  UNL1        0.0060
      8 C          -6.7976  -19.9582   22.2331 C.ar    1  UNL1       -0.0020
      9 C          -6.0236  -20.4550   21.0481 C.ar    1  UNL1       -0.0002
     10 C          -6.7145  -20.6565   19.7320 C.ar    1  UNL1        0.0061
     11 C          -8.1793  -20.3612   19.6009 C.ar    1  UNL1        0.0985
     12 C          -8.9533  -19.8644   20.7859 C.ar    1  UNL1        0.1400
     13 F         -10.4181  -19.5692   20.6548 F       1  UNL1       -0.2046
     14 C          -8.8702  -20.5627   18.2848 C.3     1  UNL1        0.4207
     15 F          -9.5611  -20.7642   16.9688 F       1  UNL1       -0.1658
     16 F          -9.3381  -19.1378   18.3122 F       1  UNL1       -0.1658
     17 F          -8.4024  -21.9877   18.2574 F       1  UNL1       -0.1658
     18 C          -8.6676  -15.6460   24.8801 C.3     1  UNL1        0.0730
     19 C          -7.5808  -15.4009   25.8845 C.3     1  UNL1        0.0294
     20 C          -6.1646  -15.2143   25.4267 C.3     1  UNL1        0.0666
     21 S          -5.4204  -16.3588   24.8051 S.3     1  UNL1       -0.0756
     22 C          -2.8590  -16.4566   21.8905 C.ar    1  UNL1        0.2029
     23 N          -3.2124  -14.9991   21.9170 N.ar    1  UNL1       -0.1250
     24 N          -4.2148  -14.7850   23.0120 N.ar    1  UNL1       -0.1220
     25 C          -4.4811  -16.1102   23.6623 C.ar    1  UNL1        0.1933
     26 N          -3.6431  -17.1433   22.9691 N.ar    1  UNL1       -0.2860
     27 C          -3.5973  -18.6064   23.2971 C.3     1  UNL1        0.1341
     28 C          -3.6304  -18.4649   19.4366 C.3     1  UNL1        0.0556
     29 C          -2.2459  -18.0353   19.8225 C.ar    1  UNL1        0.1001
     30 N          -0.9730  -18.4535   19.1481 N.ar    1  UNL1       -0.2085
     31 C           0.1682  -17.7888   19.8592 C.ar    1  UNL1        0.2849
     32 O          -0.3993  -16.9599   20.9730 O.2     1  UNL1       -0.4283
     33 C          -1.8914  -17.1123   20.9503 C.ar    1  UNL1        0.1964
@<TRIPOS>BOND
     1    28    29    1
     2    29    30   ar
     3    30    31   ar
     4    31    32   ar
     5    32    33   ar
     6    33    22    1
     7    22    23   ar
     8    23    24   ar
     9    24    25   ar
    10    25    21    1
    11    21    20    1
    12    20    19    1
    13    19    18    1
    14    18     1    1
    15     1     2    1
    16     2     3    1
    17     3     4    1
    18     4     5    1
    19     5     7    1
    20     7     8   ar
    21     8     9   ar
    22     9    10   ar
    23    10    11   ar
    24    11    14    1
    25    14    15    1
    26    14    16    1
    27    14    17    1
    28    11    12   ar
    29    12    13    1
    30     5     6    1
    31    25    26   ar
    32    26    27    1
    33    33    29   ar
    34    26    22   ar
    35     6     1    1
    36     5     3    1
    37    12     7   ar
