@<TRIPOS>MOLECULE
*****
 21 23 0 0 0
SMALL
GASTEIGER

@<TRIPOS>ATOM
      1 C          -8.4206  -18.9138   21.5803 C.2     1  UNL1        0.3689
      2 N          -9.0829  -19.1014   22.9130 N.2     1  UNL1       -0.0400
      3 C         -10.5240  -18.7264   23.0938 C.2     1  UNL1        0.1818
      4 C         -11.1863  -18.9140   24.4266 C.3     1  UNL1        0.1000
      5 C         -12.6273  -18.5390   24.6073 C.2     1  UNL1       -0.0174
      6 C         -13.4061  -17.9765   23.4553 C.2     1  UNL1       -0.0038
      7 C         -12.7438  -17.7889   22.1226 C.2     1  UNL1        0.0101
      8 C         -11.3028  -18.1639   21.9419 C.2     1  UNL1        0.1209
      9 C         -10.6404  -17.9763   20.6091 C.2     1  UNL1        0.3788
     10 O         -11.4192  -17.4137   19.4571 O.2     1  UNL1       -0.2376
     11 N          -9.1994  -18.3513   20.4284 N.am    1  UNL1        0.0364
     12 C          -4.4831  -19.0164   22.0654 C.ar    1  UNL1        0.1724
     13 C          -5.9241  -18.6414   22.2462 C.ar    1  UNL1        0.0475
     14 C          -6.9795  -19.2888   21.3995 C.ar    1  UNL1        0.0896
     15 C          -6.5938  -20.3113   20.3720 C.ar    1  UNL1        0.0108
     16 C          -5.1528  -20.6863   20.1912 C.ar    1  UNL1        0.0400
     17 C          -4.0974  -20.0388   21.0379 C.ar    1  UNL1        0.1677
     18 O          -2.6563  -20.4138   20.8571 O.3     1  UNL1       -0.5029
     19 H          -2.4153  -21.0525   20.2152 H       1  UNL1        0.2923
     20 C          -2.6078  -17.2420   22.3571 C.3     1  UNL1        0.2526
     21 O          -3.4276  -18.3689   22.9121 O.3     1  UNL1       -0.4684
@<TRIPOS>BOND
     1    20    21    1
     2    21    12    1
     3    12    13   ar
     4    13    14   ar
     5    14     1    1
     6     1     2    1
     7     2     3    2
     8     3     4    1
     9     4     5    1
    10     5     6    2
    11     6     7    1
    12     7     8    2
    13     8     9    1
    14     9    10    2
    15     9    11    1
    16    14    15   ar
    17    15    16   ar
    18    16    17   ar
    19    17    18    1
    20    17    12   ar
    21    11     1    2
    22     8     3    1
    23    18    19    1
@<TRIPOS>MOLECULE
*****
 21 23 0 0 0
SMALL
GASTEIGER

@<TRIPOS>ATOM
      1 C          -7.7066  -19.2118   21.8574 C.2     1  UNL1        0.3689
      2 N          -8.4941  -18.2671   20.9989 N.2     1  UNL1       -0.0400
      3 C          -9.9525  -18.0448   21.2708 C.2     1  UNL1        0.1818
      4 C         -10.7401  -17.1001   20.4123 C.3     1  UNL1        0.1000
      5 C         -12.1983  -16.8779   20.6843 C.2     1  UNL1       -0.0174
      6 C         -12.8690  -17.6004   21.8148 C.2     1  UNL1       -0.0038
      7 C         -12.0814  -18.5452   22.6733 C.2     1  UNL1        0.0101
      8 C         -10.6232  -18.7674   22.4014 C.2     1  UNL1        0.1209
      9 C          -9.8355  -19.7122   23.2599 C.2     1  UNL1        0.3788
     10 O         -10.5062  -20.4347   24.3904 O.2     1  UNL1       -0.2376
     11 N          -8.3773  -19.9344   22.9879 N.am    1  UNL1        0.0364
     12 C          -3.7594  -18.8403   22.0360 C.ar    1  UNL1        0.1724
     13 C          -5.2177  -18.6181   22.3080 C.ar    1  UNL1        0.0475
     14 C          -6.2482  -19.4340   21.5854 C.ar    1  UNL1        0.0896
     15 C          -5.8205  -20.4723   20.5909 C.ar    1  UNL1        0.0108
     16 C          -4.3622  -20.6945   20.3189 C.ar    1  UNL1        0.0400
     17 C          -3.3317  -19.8786   21.0415 C.ar    1  UNL1        0.1677
     18 O          -1.8733  -20.1008   20.7695 O.3     1  UNL1       -0.5029
     19 H          -1.6061  -20.7494   20.1483 H       1  UNL1        0.2923
     20 C          -2.2711  -16.7160   22.1853 C.3     1  UNL1        0.2526
     21 O          -2.7288  -18.0244   22.7586 O.3     1  UNL1       -0.4684
@<TRIPOS>BOND
     1    20    21    1
     2    21    12    1
     3    12    13   ar
     4    13    14   ar
     5    14     1    1
     6     1     2    1
     7     2     3    2
     8     3     4    1
     9     4     5    1
    10     5     6    2
    11     6     7    1
    12     7     8    2
    13     8     9    1
    14     9    10    2
    15     9    11    1
    16    14    15   ar
    17    15    16   ar
    18    16    17   ar
    19    17    18    1
    20    17    12   ar
    21    11     1    2
    22     8     3    1
    23    18    19    1
@<TRIPOS>MOLECULE
*****
 21 23 0 0 0
SMALL
GASTEIGER

@<TRIPOS>ATOM
      1 C          -7.9823  -17.5544   22.6081 C.2     1  UNL1        0.3689
      2 N          -8.8552  -18.2028   23.6414 N.2     1  UNL1       -0.0400
      3 C         -10.3474  -18.0846   23.5438 C.2     1  UNL1        0.1818
      4 C         -11.2203  -18.7330   24.5770 C.3     1  UNL1        0.1000
      5 C         -12.7124  -18.6148   24.4793 C.2     1  UNL1       -0.0174
      6 C         -13.3316  -17.8482   23.3484 C.2     1  UNL1       -0.0038
      7 C         -12.4587  -17.1998   22.3152 C.2     1  UNL1        0.0101
      8 C         -10.9666  -17.3180   22.4129 C.2     1  UNL1        0.1209
      9 C         -10.0936  -16.6696   21.3796 C.2     1  UNL1        0.3788
     10 O         -10.7128  -15.9030   20.2487 O.2     1  UNL1       -0.2376
     11 N          -8.6015  -16.7878   21.4773 N.am    1  UNL1        0.0364
     12 C          -4.2795  -18.8663   22.0439 C.ar    1  UNL1        0.1724
     13 C          -5.7716  -18.7482   21.9463 C.ar    1  UNL1        0.0475
     14 C          -6.4901  -17.6726   22.7058 C.ar    1  UNL1        0.0896
     15 C          -5.7164  -16.7151   23.5629 C.ar    1  UNL1        0.0108
     16 C          -4.2243  -16.8333   23.6606 C.ar    1  UNL1        0.0400
     17 C          -3.5058  -17.9089   22.9011 C.ar    1  UNL1        0.1677
     18 O          -2.0136  -18.0271   22.9987 O.3     1  UNL1       -0.5029
     19 H          -1.5303  -17.4290   23.5341 H       1  UNL1        0.2923
     20 C          -4.1724  -20.5192   20.0422 C.3     1  UNL1        0.2526
     21 O          -3.5610  -19.9420   21.2844 O.3     1  UNL1       -0.4684
@<TRIPOS>BOND
     1    20    21    1
     2    21    12    1
     3    12    13   ar
     4    13    14   ar
     5    14     1    1
     6     1     2    1
     7     2     3    2
     8     3     4    1
     9     4     5    1
    10     5     6    2
    11     6     7    1
    12     7     8    2
    13     8     9    1
    14     9    10    2
    15     9    11    1
    16    14    15   ar
    17    15    16   ar
    18    16    17   ar
    19    17    18    1
    20    17    12   ar
    21    11     1    2
    22     8     3    1
    23    18    19    1
@<TRIPOS>MOLECULE
*****
 21 23 0 0 0
SMALL
GASTEIGER

@<TRIPOS>ATOM
      1 C          -7.5359  -18.7611   22.1110 C.2     1  UNL1        0.3689
      2 N          -6.4475  -17.9448   22.7427 N.2     1  UNL1       -0.0400
      3 C          -5.0095  -18.2680   22.4638 C.2     1  UNL1        0.1818
      4 C          -3.9212  -17.4516   23.0955 C.3     1  UNL1        0.1000
      5 C          -2.4832  -17.7749   22.8166 C.2     1  UNL1       -0.0174
      6 C          -2.1337  -18.9144   21.9060 C.2     1  UNL1       -0.0038
      7 C          -3.2220  -19.7308   21.2743 C.2     1  UNL1        0.0101
      8 C          -4.6599  -19.4076   21.5532 C.2     1  UNL1        0.1209
      9 C          -5.7484  -20.2239   20.9216 C.2     1  UNL1        0.3788
     10 O          -5.3988  -21.3635   20.0110 O.2     1  UNL1       -0.2376
     11 N          -7.1863  -19.9007   21.2005 N.am    1  UNL1        0.0364
     12 C         -11.2971  -17.6192   21.5640 C.ar    1  UNL1        0.1724
     13 C          -9.8591  -17.9424   21.2851 C.ar    1  UNL1        0.0475
     14 C          -8.9739  -18.4379   22.3899 C.ar    1  UNL1        0.0896
     15 C          -9.5266  -18.6102   23.7737 C.ar    1  UNL1        0.0108
     16 C         -10.9645  -18.2870   24.0526 C.ar    1  UNL1        0.0400
     17 C         -11.8498  -17.7915   22.9478 C.ar    1  UNL1        0.1677
     18 O         -13.2878  -17.4683   23.2266 O.3     1  UNL1       -0.5029
     19 H         -13.6330  -17.5759   24.0910 H       1  UNL1        0.2923
     20 C         -11.7534  -15.9561   19.6207 C.3     1  UNL1        0.2526
     21 O         -12.1824  -17.1237   20.4591 O.3     1  UNL1       -0.4684
@<TRIPOS>BOND
     1    20    21    1
     2    21    12    1
     3    12    13   ar
     4    13    14   ar
     5    14     1    1
     6     1     2    1
     7     2     3    2
     8     3     4    1
     9     4     5    1
    10     5     6    2
    11     6     7    1
    12     7     8    2
    13     8     9    1
    14     9    10    2
    15     9    11    1
    16    14    15   ar
    17    15    16   ar
    18    16    17   ar
    19    17    18    1
    20    17    12   ar
    21    11     1    2
    22     8     3    1
    23    18    19    1
@<TRIPOS>MOLECULE
*****
 21 23 0 0 0
SMALL
GASTEIGER

@<TRIPOS>ATOM
      1 C          -7.8156  -18.3503   22.3830 C.2     1  UNL1        0.3689
      2 N          -7.3006  -19.4379   21.4876 N.2     1  UNL1       -0.0400
      3 C          -5.8279  -19.5645   21.2321 C.2     1  UNL1        0.1818
      4 C          -5.3128  -20.6522   20.3368 C.3     1  UNL1        0.1000
      5 C          -3.8402  -20.7787   20.0813 C.2     1  UNL1       -0.0174
      6 C          -2.8826  -19.8176   20.7212 C.2     1  UNL1       -0.0038
      7 C          -3.3977  -18.7300   21.6165 C.2     1  UNL1        0.0101
      8 C          -4.8703  -18.6034   21.8720 C.2     1  UNL1        0.1209
      9 C          -5.3855  -17.5157   22.7674 C.2     1  UNL1        0.3788
     10 O          -4.4279  -16.5547   23.4072 O.2     1  UNL1       -0.2376
     11 N          -6.8581  -17.3892   23.0228 N.am    1  UNL1        0.0364
     12 C         -11.6528  -17.4864   21.8540 C.ar    1  UNL1        0.1724
     13 C         -10.1802  -17.6130   21.5985 C.ar    1  UNL1        0.0475
     14 C          -9.2883  -18.2236   22.6385 C.ar    1  UNL1        0.0896
     15 C          -9.8691  -18.7077   23.9340 C.ar    1  UNL1        0.0108
     16 C         -11.3417  -18.5811   24.1895 C.ar    1  UNL1        0.0400
     17 C         -12.2336  -17.9705   23.1495 C.ar    1  UNL1        0.1677
     18 O         -13.7063  -17.8439   23.4050 O.3     1  UNL1       -0.5029
     19 H         -14.0691  -18.1462   24.2143 H       1  UNL1        0.2923
     20 C         -11.9576  -16.0184   19.7321 C.3     1  UNL1        0.2526
     21 O         -12.5448  -16.8757   20.8140 O.3     1  UNL1       -0.4684
@<TRIPOS>BOND
     1    20    21    1
     2    21    12    1
     3    12    13   ar
     4    13    14   ar
     5    14     1    1
     6     1     2    1
     7     2     3    2
     8     3     4    1
     9     4     5    1
    10     5     6    2
    11     6     7    1
    12     7     8    2
    13     8     9    1
    14     9    10    2
    15     9    11    1
    16    14    15   ar
    17    15    16   ar
    18    16    17   ar
    19    17    18    1
    20    17    12   ar
    21    11     1    2
    22     8     3    1
    23    18    19    1
@<TRIPOS>MOLECULE
*****
 21 23 0 0 0
SMALL
GASTEIGER

@<TRIPOS>ATOM
      1 C          -7.7133  -18.1935   22.5057 C.2     1  UNL1        0.3689
      2 N          -8.4586  -17.1832   21.6848 N.2     1  UNL1       -0.0400
      3 C          -9.9566  -17.2269   21.6206 C.2     1  UNL1        0.1818
      4 C         -10.7018  -16.2166   20.7997 C.3     1  UNL1        0.1000
      5 C         -12.1998  -16.2603   20.7355 C.2     1  UNL1       -0.0174
      6 C         -12.9525  -17.3142   21.4922 C.2     1  UNL1       -0.0038
      7 C         -12.2073  -18.3244   22.3132 C.2     1  UNL1        0.0101
      8 C         -10.7093  -18.2808   22.3773 C.2     1  UNL1        0.1209
      9 C          -9.9640  -19.2911   23.1983 C.2     1  UNL1        0.3788
     10 O         -10.7167  -20.3450   23.9550 O.2     1  UNL1       -0.2376
     11 N          -8.4661  -19.2474   23.2625 N.am    1  UNL1        0.0364
     12 C          -3.9051  -19.1327   21.9017 C.ar    1  UNL1        0.1724
     13 C          -5.4030  -19.1763   21.8375 C.ar    1  UNL1        0.0475
     14 C          -6.2153  -18.1499   22.5699 C.ar    1  UNL1        0.0896
     15 C          -5.5296  -17.0797   23.3666 C.ar    1  UNL1        0.0108
     16 C          -4.0317  -17.0361   23.4308 C.ar    1  UNL1        0.0400
     17 C          -3.2194  -18.0626   22.6984 C.ar    1  UNL1        0.1677
     18 O          -1.7213  -18.0189   22.7626 O.3     1  UNL1       -0.5029
     19 H          -1.2930  -17.3505   23.2602 H       1  UNL1        0.2923
     20 C          -3.5870  -20.7178   19.8679 C.3     1  UNL1        0.2526
     21 O          -3.0927  -20.1592   21.1693 O.3     1  UNL1       -0.4684
@<TRIPOS>BOND
     1    20    21    1
     2    21    12    1
     3    12    13   ar
     4    13    14   ar
     5    14     1    1
     6     1     2    1
     7     2     3    2
     8     3     4    1
     9     4     5    1
    10     5     6    2
    11     6     7    1
    12     7     8    2
    13     8     9    1
    14     9    10    2
    15     9    11    1
    16    14    15   ar
    17    15    16   ar
    18    16    17   ar
    19    17    18    1
    20    17    12   ar
    21    11     1    2
    22     8     3    1
    23    18    19    1
@<TRIPOS>MOLECULE
*****
 21 23 0 0 0
SMALL
GASTEIGER

@<TRIPOS>ATOM
      1 C          -4.7358  -17.1297   23.0362 C.2     1  UNL1        0.3689
      2 N          -3.4549  -16.4452   22.6614 N.2     1  UNL1       -0.0400
      3 C          -2.5673  -17.0394   21.6081 C.2     1  UNL1        0.1818
      4 C          -1.2864  -16.3549   21.2332 C.3     1  UNL1        0.1000
      5 C          -0.3989  -16.9491   20.1801 C.2     1  UNL1       -0.0174
      6 C          -0.7924  -18.2279   19.5018 C.2     1  UNL1       -0.0038
      7 C          -2.0733  -18.9124   19.8766 C.2     1  UNL1        0.0101
      8 C          -2.9608  -18.3181   20.9298 C.2     1  UNL1        0.1209
      9 C          -4.2418  -19.0026   21.3048 C.2     1  UNL1        0.3788
     10 O          -4.6353  -20.2814   20.6265 O.2     1  UNL1       -0.2376
     11 N          -5.1293  -18.4084   22.3579 N.am    1  UNL1        0.0364
     12 C          -7.9900  -15.8481   24.9118 C.ar    1  UNL1        0.1724
     13 C          -7.1026  -16.4423   23.8586 C.ar    1  UNL1        0.0475
     14 C          -5.6234  -16.5355   24.0895 C.ar    1  UNL1        0.0896
     15 C          -5.0317  -16.0346   25.3736 C.ar    1  UNL1        0.0108
     16 C          -5.9192  -15.4404   26.4268 C.ar    1  UNL1        0.0400
     17 C          -7.3984  -15.3472   26.1959 C.ar    1  UNL1        0.1677
     18 O          -8.2859  -14.7529   27.2491 O.3     1  UNL1       -0.5029
     19 H          -7.9163  -14.4400   28.0513 H       1  UNL1        0.2923
     20 C         -10.1029  -16.5217   23.5582 C.3     1  UNL1        0.2526
     21 O          -9.4693  -15.7548   24.6809 O.3     1  UNL1       -0.4684
@<TRIPOS>BOND
     1    20    21    1
     2    21    12    1
     3    12    13   ar
     4    13    14   ar
     5    14     1    1
     6     1     2    1
     7     2     3    2
     8     3     4    1
     9     4     5    1
    10     5     6    2
    11     6     7    1
    12     7     8    2
    13     8     9    1
    14     9    10    2
    15     9    11    1
    16    14    15   ar
    17    15    16   ar
    18    16    17   ar
    19    17    18    1
    20    17    12   ar
    21    11     1    2
    22     8     3    1
    23    18    19    1
@<TRIPOS>MOLECULE
*****
 21 23 0 0 0
SMALL
GASTEIGER

@<TRIPOS>ATOM
      1 C          -7.1650  -18.9251   21.2929 C.2     1  UNL1        0.3689
      2 N          -6.2926  -18.0921   22.1845 N.2     1  UNL1       -0.0400
      3 C          -4.8117  -18.3286   22.2184 C.2     1  UNL1        0.1818
      4 C          -3.9394  -17.4956   23.1101 C.3     1  UNL1        0.1000
      5 C          -2.4586  -17.7321   23.1439 C.2     1  UNL1       -0.0174
      6 C          -1.8501  -18.8017   22.2861 C.2     1  UNL1       -0.0038
      7 C          -2.7224  -19.6347   21.3945 C.2     1  UNL1        0.0101
      8 C          -4.2032  -19.3981   21.3606 C.2     1  UNL1        0.1209
      9 C          -5.0756  -20.2312   20.4689 C.2     1  UNL1        0.3788
     10 O          -4.4671  -21.3007   19.6111 O.2     1  UNL1       -0.2376
     11 N          -6.5565  -19.9947   20.4351 N.am    1  UNL1        0.0364
     12 C         -10.8495  -18.0423   22.4738 C.ar    1  UNL1        0.1724
     13 C          -9.3687  -18.2788   22.5078 C.ar    1  UNL1        0.0475
     14 C          -8.6459  -18.6886   21.2590 C.ar    1  UNL1        0.0896
     15 C          -9.4039  -18.8620   19.9763 C.ar    1  UNL1        0.0108
     16 C         -10.8847  -18.6256   19.9423 C.ar    1  UNL1        0.0400
     17 C         -11.6075  -18.2157   21.1911 C.ar    1  UNL1        0.1677
     18 O         -13.0884  -17.9792   21.1572 O.3     1  UNL1       -0.5029
     19 H         -13.5619  -18.0875   20.3560 H       1  UNL1        0.2923
     20 C         -12.3095  -18.6570   24.5331 C.3     1  UNL1        0.2526
     21 O         -11.5724  -17.6324   23.7227 O.3     1  UNL1       -0.4684
@<TRIPOS>BOND
     1    20    21    1
     2    21    12    1
     3    12    13   ar
     4    13    14   ar
     5    14     1    1
     6     1     2    1
     7     2     3    2
     8     3     4    1
     9     4     5    1
    10     5     6    2
    11     6     7    1
    12     7     8    2
    13     8     9    1
    14     9    10    2
    15     9    11    1
    16    14    15   ar
    17    15    16   ar
    18    16    17   ar
    19    17    18    1
    20    17    12   ar
    21    11     1    2
    22     8     3    1
    23    18    19    1
@<TRIPOS>MOLECULE
*****
 21 23 0 0 0
SMALL
GASTEIGER

@<TRIPOS>ATOM
      1 C         -14.2981   -7.2513   18.9210 C.2     1  UNL1        0.3689
      2 N         -15.6513   -6.7429   19.3211 N.2     1  UNL1       -0.0400
      3 C         -16.8413   -7.6545   19.2663 C.2     1  UNL1        0.1818
      4 C         -18.1946   -7.1461   19.6664 C.3     1  UNL1        0.1000
      5 C         -19.3845   -8.0577   19.6116 C.2     1  UNL1       -0.0174
      6 C         -19.2212   -9.4777   19.1567 C.2     1  UNL1       -0.0038
      7 C         -17.8679   -9.9861   18.7566 C.2     1  UNL1        0.0101
      8 C         -16.6780   -9.0745   18.8114 C.2     1  UNL1        0.1209
      9 C         -15.3246   -9.5829   18.4113 C.2     1  UNL1        0.3788
     10 O         -15.1612  -11.0029   17.9565 O.2     1  UNL1       -0.2376
     11 N         -14.1347   -8.6713   18.4662 N.am    1  UNL1        0.0364
     12 C         -12.1082   -3.9606   19.2762 C.ar    1  UNL1        0.1724
     13 C         -13.2981   -4.8722   19.2214 C.ar    1  UNL1        0.0475
     14 C         -13.1080   -6.3396   18.9759 C.ar    1  UNL1        0.0896
     15 C         -11.7280   -6.8956   18.7851 C.ar    1  UNL1        0.0108
     16 C         -10.5380   -5.9841   18.8399 C.ar    1  UNL1        0.0400
     17 C         -10.7281   -4.5166   19.0854 C.ar    1  UNL1        0.1677
     18 O          -9.5381   -3.6050   19.1402 O.3     1  UNL1       -0.5029
     19 H          -8.6760   -3.9522   19.0211 H       1  UNL1        0.2923
     20 C         -12.3293   -1.5372   18.3662 C.3     1  UNL1        0.2526
     21 O         -12.2982   -2.4931   19.5217 O.3     1  UNL1       -0.4684
@<TRIPOS>BOND
     1    20    21    1
     2    21    12    1
     3    12    13   ar
     4    13    14   ar
     5    14     1    1
     6     1     2    1
     7     2     3    2
     8     3     4    1
     9     4     5    1
    10     5     6    2
    11     6     7    1
    12     7     8    2
    13     8     9    1
    14     9    10    2
    15     9    11    1
    16    14    15   ar
    17    15    16   ar
    18    16    17   ar
    19    17    18    1
    20    17    12   ar
    21    11     1    2
    22     8     3    1
    23    18    19    1
